
 **********************************************
 **** Specfem 3-D Solver - MPI version f90 ****
 **********************************************

 Running Git package version of the code: v2.0.2-2897-gc5377b5
 which is Git commit c5377b5f03d772960ed7cb8bd5352ca1175cedf8
 dating From Date:   Wed May 29 19:15:25 2019 -0600


 There are           16  MPI processes
 Processes are numbered from 0 to           15

 There is a total of           16  slices

  NDIM =            3

  NGLLX =            5
  NGLLY =            5
  NGLLZ =            5

 using single precision for the calculations

 smallest and largest possible floating-point numbers are:    1.17549435E-38   3.40282347E+38

 velocity model:   tomo

 total acoustic elements    :           0
 total elastic elements     :       13248
 total poroelastic elements :           0

 ********
 minimum and maximum number of elements
 and points in the CUBIT + SCOTCH mesh:

 NSPEC_global_min =          828
 NSPEC_global_max =          828
 NSPEC_global_max / NSPEC_global_min imbalance =    1.00000000      =    0.00000000      %
 NSPEC_global_sum =        13248

 NGLOB_global_min =        58125
 NGLOB_global_max =        58125
 NGLOB_global_max / NGLOB_global_min imbalance =    1.00000000      =    0.00000000      %
 NGLOB_global_sum =       930000

 If you have elements of a single type (all acoustic, all elastic, all poroelastic, and without CPML)
 in the whole mesh, then there should be no significant imbalance in the above numbers.
 Otherwise, it is normal to have imbalance in elements and points because the domain decomposer
 compensates for the different cost of different elements by partitioning them unevenly among processes.
 ********


 ********
 Model: P velocity min,max =    330.000031       7500.00000    
 Model: S velocity min,max =    0.00000000       4300.00000    

 Model: Poisson's ratio min,max =   0.255164206      0.500000000    
 ********

 *********************************************
 *** Verification of simulation parameters ***
 *********************************************

 *** Xmin and Xmax of the model =    370768.812       421052.906    
 *** Ymin and Ymax of the model =    8302064.00       8352066.00    
 *** Zmin and Zmax of the model =   -16000.0000       30000.0000    

 *** Max GLL point distance =    685.812500    
 *** Min GLL point distance =    345.345703    
 *** Max/min ratio =    1.98587239    

 *** Max element size =    2095.18750    
 *** Min element size =    2000.00000    
 *** Max/min ratio =    1.04759371    

 *** Minimum period resolved =    7.93631554    
 *** Maximum suggested time step =    2.30230801E-02

 *** for DT :    1.0000000000000000E-002
 *** Max stability for wave velocities =   0.217173383    

 Elapsed time for checking mesh resolution in seconds =    1.9571781158447266E-003
 saving VTK files for Courant number and minimum period

 ******************************************
 There is a total of           16  slices
 ******************************************

 mesh surfaces:
   high-resolution  =  F
   nfaces per slice =           36         210          36          36         192         380         191         191          54         246          54          54          36         209          36          36

   total number of surface faces is         1997

   used on cross-sections

 surface movies:
   saving: particle velocities
   number of steps between frames =          200


 kd-tree:
   total data points:          828
   theoretical   number of nodes:         1650
                tree memory size:    5.03540039E-02 MB
   actual        number of nodes:         1655
                tree memory size:    5.05065918E-02 MB
   maximum depth   :           11
   creation timing :    0.00000000     (s)


 sources:           1

 ********************
  locating sources
 ********************

 reading source information from ./DATA/CMTSOLUTION file

 UTM projection:
   UTM zone:           -2

 source #            1
   source located in slice            9
                  in element           78
                  in elastic domain

   using moment tensor source: 
     xi coordinate of source in that element:   0.87194496909110175     
     eta coordinate of source in that element:  -0.98588279467357687     
     gamma coordinate of source in that element:   -1.0000000000000018     

   source time function:
     using Gaussian source time function
     half duration:    8.0000000000000000       seconds
     time shift:    0.0000000000000000       seconds

   magnitude of the source:
        scalar moment M0 =    1.6844703915474442E+028  dyne-cm
     moment magnitude Mw =    8.1176424451728337     

   original (requested) position of the source:

             latitude:   -15.130000000000001     
            longitude:   -171.97000000000000     

            UTM x:    395776.69610082358     
            UTM y:    8327079.7065986479     
           depth:    12.000000000000000       km

   position of the source that will be used:

            UTM x:    395776.69610082358     
            UTM y:    8327079.7065986479     
            depth:    11.999999999999998       km
                z:   -11999.999999999998     

   error in location of the source:    9.31324351E-10  m



 maximum error in location of the sources:    9.31324351E-10  m


 Elapsed time for detection of sources in seconds =    2.3881196975708008E-002

 End of source detection - done


 Each source is being convolved with HDUR_MOVIE =    0.0000000000000000     


 printing the source-time function

 receivers:

 there are          406  stations in file ./DATA/STATIONS
 saving          314  stations inside the model in file ./DATA/STATIONS_FILTERED
 excluding           92  stations located outside the model


 Total number of receivers =          314


 ********************
  locating receivers
 ********************

 reading receiver information from ./DATA/STATIONS_FILTERED file


 station #            1     DB    S01
      original latitude:   -15.1300001    
      original longitude:   -171.970001    
      original UTM x:    395776.688    
      original UTM y:    8327079.50    
      original depth:   -0.00000000      m
      horizontal distance km:    9.31322619E-13
      target x, y, z:    395776.688       8327079.50       0.00000000    
      closest estimate found:    5.82076609E-11  m away

      receiver located in slice            9
                       in element          258
                       in elastic domain
      at coordinates: 
      xi    =   0.87194496909104624     
      eta   =  -0.98588279467536477     
      gamma =   0.99999999999999833     
      rotation matrix: 
      nu1 =    1.00000000       0.00000000       0.00000000    
      nu2 =    0.00000000       1.00000000       0.00000000    
      nu3 =    0.00000000       0.00000000       1.00000000    
      UTM x:    395776.69610082352     
      UTM y:    8327079.7065986469     
      depth:    1.2332530353770676E-014  m
      z:    1.2332530353770676E-014



 station #            2     DB    S02
      original latitude:   -15.1225004    
      original longitude:   -171.988998    
      original UTM x:    393731.281    
      original UTM y:    8327900.00    
      original depth:   -0.00000000      m
      horizontal distance km:    2.20384574    
      target x, y, z:    393731.281       8327900.00       0.00000000    
      closest estimate found:    1.01965360E-14  m away

      receiver located in slice            9
                       in element          257
                       in elastic domain
      at coordinates: 
      xi    =   0.91944321402576745     
      eta   =  -0.19823254902252826     
      gamma =    1.0000000000000007     
      rotation matrix: 
      nu1 =    1.00000000       0.00000000       0.00000000    
      nu2 =    0.00000000       1.00000000       0.00000000    
      nu3 =    0.00000000       0.00000000       1.00000000    
      UTM x:    393731.29671449331     
      UTM y:    8327900.2412420558     
      depth:    1.0196536092517268E-014  m
      z:    1.0196536092517268E-014



 station #            3     DB    S03
      original latitude:   -15.1148996    
      original longitude:   -172.007996    
      original UTM x:    391685.688    
      original UTM y:    8328731.50    
      original depth:   -0.00000000      m
      horizontal distance km:    4.41194677    
      target x, y, z:    391685.688       8328731.50       0.00000000    
      closest estimate found:    5.82076679E-11  m away

      receiver located in slice            9
                       in element          256
                       in elastic domain
      at coordinates: 
      xi    =   0.96677535874717002     
      eta   =   0.59987411689389603     
      gamma =   0.99999999999999967     
      rotation matrix: 
      nu1 =    1.00000000       0.00000000       0.00000000    
      nu2 =    0.00000000       1.00000000       0.00000000    
      nu3 =    0.00000000       0.00000000       1.00000000    
      UTM x:    391685.69459261250     
      UTM y:    8328731.6688612737     
      depth:    2.4800034357229173E-014  m
      z:    2.4800034357229173E-014



 station #            4     DB    S04
      original latitude:   -15.1073999    
      original longitude:   -172.028000    
      original UTM x:    389532.531    
      original UTM y:    8329551.50    
      original depth:   -0.00000000      m
      horizontal distance km:    6.71556425    
      target x, y, z:    389532.531       8329551.50       0.00000000    
      closest estimate found:    0.00000000      m away

      receiver located in slice            9
                       in element          261
                       in elastic domain
      at coordinates: 
      xi    =   0.91139485719382884     
      eta   =  -0.61318923457845476     
      gamma =    1.0000000000000000     
      rotation matrix: 
      nu1 =    1.00000000       0.00000000       0.00000000    
      nu2 =    0.00000000       1.00000000       0.00000000    
      nu3 =    0.00000000       0.00000000       1.00000000    
      UTM x:    389532.52155617840     
      UTM y:    8329551.3634121865     
      depth:    0.0000000000000000       m
      z:    0.0000000000000000     



 station #            5     DB    S05
      original latitude:   -15.0998001    
      original longitude:   -172.046997    
      original UTM x:    387486.594    
      original UTM y:    8330382.50    
      original depth:   -0.00000000      m
      horizontal distance km:    8.92376804    
      target x, y, z:    387486.594       8330382.50       0.00000000    
      closest estimate found:    9.31322575E-10  m away

      receiver located in slice            9
                       in element          260
                       in elastic domain
      at coordinates: 
      xi    =   0.95842958874797668     
      eta   =   0.18477657815755358     
      gamma =    1.0000000000000000     
      rotation matrix: 
      nu1 =    1.00000000       0.00000000       0.00000000    
      nu2 =    0.00000000       1.00000000       0.00000000    
      nu3 =    0.00000000       0.00000000       1.00000000    
      UTM x:    387486.60799652513     
      UTM y:    8330382.4448061520     
      depth:    1.5411011603770107E-014  m
      z:    1.5411011603770107E-014



 station #            6     DB    S06
      original latitude:   -15.0923004    
      original longitude:   -172.065994    
      original UTM x:    385440.594    
      original UTM y:    8331202.50    
      original depth:   -0.00000000      m
      horizontal distance km:    11.1279268    
      target x, y, z:    385440.594       8331202.50       0.00000000    
      closest estimate found:    2.54345546E-14  m away

      receiver located in slice            9
                       in element          260
                       in elastic domain
      at coordinates: 
      xi    =  -0.99466016874683005     
      eta   =   0.97195954592491618     
      gamma =    1.0000000000000000     
      rotation matrix: 
      nu1 =    1.00000000       0.00000000       0.00000000    
      nu2 =    0.00000000       1.00000000       0.00000000    
      nu3 =    0.00000000       0.00000000       1.00000000    
      UTM x:    385440.59389041201     
      UTM y:    8331202.2958670808     
      depth:    2.5434554507748740E-014  m
      z:    2.5434554507748740E-014



 station #            7     DB    S07
      original latitude:   -15.0846996    
      original longitude:   -172.085007    
      original UTM x:    383394.375    
      original UTM y:    8332033.00    
      original depth:   -0.00000000      m
      horizontal distance km:    13.3363209    
      target x, y, z:    383394.375       8332033.00       0.00000000    
      closest estimate found:    1.54247817E-14  m away

      receiver located in slice            9
                       in element          265
                       in elastic domain
      at coordinates: 
      xi    =  -0.94791837734939055     
      eta   =  -0.23058213207281578     
      gamma =   0.99999999999999933     
      rotation matrix: 
      nu1 =    1.00000000       0.00000000       0.00000000    
      nu2 =    0.00000000       1.00000000       0.00000000    
      nu3 =    0.00000000       0.00000000       1.00000000    
      UTM x:    383394.37288237864     
      UTM y:    8332033.0410639131     
      depth:    1.5424782212152398E-014  m
      z:    1.5424782212152398E-014



 station #            8     DB    S08
      original latitude:   -15.0771999    
      original longitude:   -172.104004    
      original UTM x:    381348.062    
      original UTM y:    8332852.50    
      original depth:   -0.00000000      m
      horizontal distance km:    15.5406418    
      target x, y, z:    381348.062       8332852.50       0.00000000    
      closest estimate found:    5.43231333E-14  m away

      receiver located in slice            8
                       in element          306
                       in elastic domain
      at coordinates: 
      xi    =  -0.90129925109125464     
      eta   =   0.55608955846273811     
      gamma =  -0.99999999999999878     
      rotation matrix: 
      nu1 =    1.00000000       0.00000000       0.00000000    
      nu2 =    0.00000000       1.00000000       0.00000000    
      nu3 =    0.00000000       0.00000000       1.00000000    
      UTM x:    381348.05299547792     
      UTM y:    8332852.5562975276     
      depth:    5.4323132802333974E-014  m
      z:   -5.4323132802333974E-014



 station #            9     DB    S09
      original latitude:   -15.0696001    
      original longitude:   -172.123001    
      original UTM x:    379301.531    
      original UTM y:    8333683.00    
      original depth:   -0.00000000      m
      horizontal distance km:    17.7492065    
      target x, y, z:    379301.531       8333683.00       0.00000000    
      closest estimate found:    2.56403328E-14  m away

      receiver located in slice            8
                       in element          311
                       in elastic domain
      at coordinates: 
      xi    =  -0.85485269687241938     
      eta   =  -0.64678065950743346     
      gamma =  -0.99999999999999989     
      rotation matrix: 
      nu1 =    1.00000000       0.00000000       0.00000000    
      nu2 =    0.00000000       1.00000000       0.00000000    
      nu3 =    0.00000000       0.00000000       1.00000000    
      UTM x:    379301.52415758581     
      UTM y:    8333682.9662479591     
      depth:    2.5640332803430326E-014  m
      z:    2.5640332803430326E-014



 station #           10     DB    S10
      original latitude:   -15.0621004    
      original longitude:   -172.143005    
      original UTM x:    377147.406    
      original UTM y:    8334501.50    
      original depth:   -0.00000000      m
      horizontal distance km:    20.0533009    
      target x, y, z:    377147.406       8334501.50       0.00000000    
      closest estimate found:    9.31322575E-10  m away

      receiver located in slice            8
                       in element          274
                       in elastic domain
      at coordinates: 
      xi    =  -0.91113730405492532     
      eta   =   0.13903480229391049     
      gamma =    1.0000000000000000     
      rotation matrix: 
      nu1 =    1.00000000       0.00000000       0.00000000    
      nu2 =    0.00000000       1.00000000       0.00000000    
      nu3 =    0.00000000       0.00000000       1.00000000    
      UTM x:    377147.40311640059     
      UTM y:    8334501.5895052906     
      depth:    0.0000000000000000       m
      z:    0.0000000000000000     



 station #           11     DB    S11
      original latitude:   -15.0544996    
      original longitude:   -172.162003    
      original UTM x:    375100.562    
      original UTM y:    8335331.50    
      original depth:   -0.00000000      m
      horizontal distance km:    22.2620125    
      target x, y, z:    375100.562       8335331.50       0.00000000    
      closest estimate found:    0.00000000      m away

      receiver located in slice            8
                       in element          273
                       in elastic domain
      at coordinates: 
      xi    =  -0.86498905075888177     
      eta   =   0.93583503584009808     
      gamma =    1.0000000000000000     
      rotation matrix: 
      nu1 =    1.00000000       0.00000000       0.00000000    
      nu2 =    0.00000000       1.00000000       0.00000000    
      nu3 =    0.00000000       0.00000000       1.00000000    
      UTM x:    375100.56162660656     
      UTM y:    8335331.6561485864     
      depth:    0.0000000000000000       m
      z:    0.0000000000000000     



 station #           12     DB    S12
      original latitude:   -15.0469999    
      original longitude:   -172.181000    
      original UTM x:    373053.625    
      original UTM y:    8336150.50    
      original depth:   -0.00000000      m
      horizontal distance km:    24.4666538    
      target x, y, z:    373053.625       8336150.50       0.00000000    
      closest estimate found:    9.33139788E-10  m away

      receiver located in slice            8
                       in element          278
                       in elastic domain
      at coordinates: 
      xi    =  -0.81895777745997111     
      eta   =  -0.27814393092008527     
      gamma =    1.0000000000000011     
      rotation matrix: 
      nu1 =    1.00000000       0.00000000       0.00000000    
      nu2 =    0.00000000       1.00000000       0.00000000    
      nu3 =    0.00000000       0.00000000       1.00000000    
      UTM x:    373053.62462203426     
      UTM y:    8336150.4935599621     
      depth:    5.2985527026817068E-014  m
      z:    5.2985527026817068E-014



 station #           13     DB    S13
      original latitude:   -15.0394001    
      original longitude:   -172.199997    
      original UTM x:    371006.469    
      original UTM y:    8336980.00    
      original depth:   -0.00000000      m
      horizontal distance km:    26.6755352    
      target x, y, z:    371006.469       8336980.00       0.00000000    
      closest estimate found:    9.33139788E-10  m away

      receiver located in slice            8
                       in element          277
                       in elastic domain
      at coordinates: 
      xi    =  -0.77313193834135163     
      eta   =   0.51833633259294576     
      gamma =    1.0000000000000000     
      rotation matrix: 
      nu1 =    1.00000000       0.00000000       0.00000000    
      nu2 =    0.00000000       1.00000000       0.00000000    
      nu3 =    0.00000000       0.00000000       1.00000000    
      UTM x:    371006.47451865475     
      UTM y:    8336980.2268744782     
      depth:    4.9692108676042278E-014  m
      z:   -4.9692108676042278E-014



 station #           14     DB    L01
      original latitude:   -15.1300001    
      original longitude:   -171.970001    
      original UTM x:    395776.688    
      original UTM y:    8327079.50    
      original depth:   -10000.0000      m
      horizontal distance km:    9.31322619E-13
      target x, y, z:    395776.688       8327079.50       10000.0000    
      closest estimate found:    9.38572109E-10  m away

      receiver located in slice            9
                       in element          438
                       in elastic domain
      at coordinates: 
      xi    =   0.87194496909110175     
      eta   =  -0.98588279467536477     
      gamma =   0.99999999999999811     
      rotation matrix: 
      nu1 =    1.00000000       0.00000000       0.00000000    
      nu2 =    0.00000000       1.00000000       0.00000000    
      nu3 =    0.00000000       0.00000000       1.00000000    
      UTM x:    395776.69610082370     
      UTM y:    8327079.7065986479     
      depth:    9999.9999999999982       m
      z:    9999.9999999999982     



 station #           15     DB    L02
      original latitude:   -15.1225004    
      original longitude:   -171.988998    
      original UTM x:    393731.281    
      original UTM y:    8327900.00    
      original depth:   -10000.0000      m
      horizontal distance km:    2.20384574    
      target x, y, z:    393731.281       8327900.00       10000.0000    
      closest estimate found:    0.00000000      m away

      receiver located in slice            9
                       in element          437
                       in elastic domain
      at coordinates: 
      xi    =   0.91944321402576745     
      eta   =  -0.19823254902252826     
      gamma =    1.0000000000000000     
      rotation matrix: 
      nu1 =    1.00000000       0.00000000       0.00000000    
      nu2 =    0.00000000       1.00000000       0.00000000    
      nu3 =    0.00000000       0.00000000       1.00000000    
      UTM x:    393731.29671449331     
      UTM y:    8327900.2412420558     
      depth:    10000.000000000000       m
      z:    10000.000000000000     



 station #           16     DB    L03
      original latitude:   -15.1148996    
      original longitude:   -172.007996    
      original UTM x:    391685.688    
      original UTM y:    8328731.50    
      original depth:   -10000.0000      m
      horizontal distance km:    4.41194677    
      target x, y, z:    391685.688       8328731.50       10000.0000    
      closest estimate found:    5.82076609E-11  m away

      receiver located in slice            9
                       in element          436
                       in elastic domain
      at coordinates: 
      xi    =   0.96677535874711451     
      eta   =   0.59987411689300207     
      gamma =    1.0000000000000000     
      rotation matrix: 
      nu1 =    1.00000000       0.00000000       0.00000000    
      nu2 =    0.00000000       1.00000000       0.00000000    
      nu3 =    0.00000000       0.00000000       1.00000000    
      UTM x:    391685.69459261250     
      UTM y:    8328731.6688612737     
      depth:    10000.000000000000       m
      z:    10000.000000000000     



 station #           17     DB    L04
      original latitude:   -15.1073999    
      original longitude:   -172.028000    
      original UTM x:    389532.531    
      original UTM y:    8329551.50    
      original depth:   -10000.0000      m
      horizontal distance km:    6.71556425    
      target x, y, z:    389532.531       8329551.50       10000.0000    
      closest estimate found:    0.00000000      m away

      receiver located in slice            9
                       in element          441
                       in elastic domain
      at coordinates: 
      xi    =   0.91139485719382884     
      eta   =  -0.61318923457845476     
      gamma =    1.0000000000000000     
      rotation matrix: 
      nu1 =    1.00000000       0.00000000       0.00000000    
      nu2 =    0.00000000       1.00000000       0.00000000    
      nu3 =    0.00000000       0.00000000       1.00000000    
      UTM x:    389532.52155617840     
      UTM y:    8329551.3634121865     
      depth:    10000.000000000000       m
      z:    10000.000000000000     



 station #           18     DB    L05
      original latitude:   -15.0998001    
      original longitude:   -172.046997    
      original UTM x:    387486.594    
      original UTM y:    8330382.50    
      original depth:   -10000.0000      m
      horizontal distance km:    8.92376804    
      target x, y, z:    387486.594       8330382.50       10000.0000    
      closest estimate found:    1.16415322E-10  m away

      receiver located in slice            9
                       in element          476
                       in elastic domain
      at coordinates: 
      xi    =   0.95842958874792117     
      eta   =   0.18477657815755358     
      gamma =   -1.0000000000000018     
      rotation matrix: 
      nu1 =    1.00000000       0.00000000       0.00000000    
      nu2 =    0.00000000       1.00000000       0.00000000    
      nu3 =    0.00000000       0.00000000       1.00000000    
      UTM x:    387486.60799652524     
      UTM y:    8330382.4448061511     
      depth:    10000.000000000000       m
      z:    10000.000000000000     



 station #           19     DB    L06
      original latitude:   -15.0923004    
      original longitude:   -172.065994    
      original UTM x:    385440.594    
      original UTM y:    8331202.50    
      original depth:   -10000.0000      m
      horizontal distance km:    11.1279268    
      target x, y, z:    385440.594       8331202.50       10000.0000    
      closest estimate found:    0.00000000      m away

      receiver located in slice            9
                       in element          440
                       in elastic domain
      at coordinates: 
      xi    =  -0.99466016874683005     
      eta   =   0.97195954592491618     
      gamma =    1.0000000000000000     
      rotation matrix: 
      nu1 =    1.00000000       0.00000000       0.00000000    
      nu2 =    0.00000000       1.00000000       0.00000000    
      nu3 =    0.00000000       0.00000000       1.00000000    
      UTM x:    385440.59389041201     
      UTM y:    8331202.2958670808     
      depth:    10000.000000000000       m
      z:    10000.000000000000     



 station #           20     DB    L07
      original latitude:   -15.0846996    
      original longitude:   -172.085007    
      original UTM x:    383394.375    
      original UTM y:    8332033.00    
      original depth:   -10000.0000      m
      horizontal distance km:    13.3363209    
      target x, y, z:    383394.375       8332033.00       10000.0000    
      closest estimate found:    0.00000000      m away

      receiver located in slice            9
                       in element          445
                       in elastic domain
      at coordinates: 
      xi    =  -0.94791837734939055     
      eta   =  -0.23058213207281578     
      gamma =    1.0000000000000000     
      rotation matrix: 
      nu1 =    1.00000000       0.00000000       0.00000000    
      nu2 =    0.00000000       1.00000000       0.00000000    
      nu3 =    0.00000000       0.00000000       1.00000000    
      UTM x:    383394.37288237864     
      UTM y:    8332033.0410639131     
      depth:    10000.000000000000       m
      z:    10000.000000000000     



 station #           21     DB    L08
      original latitude:   -15.0771999    
      original longitude:   -172.104004    
      original UTM x:    381348.062    
      original UTM y:    8332852.50    
      original depth:   -10000.0000      m
      horizontal distance km:    15.5406418    
      target x, y, z:    381348.062       8332852.50       10000.0000    
      closest estimate found:    0.00000000      m away

      receiver located in slice            8
                       in element          450
                       in elastic domain
      at coordinates: 
      xi    =  -0.90129925109125442     
      eta   =   0.55608955846146857     
      gamma =    1.0000000000000000     
      rotation matrix: 
      nu1 =    1.00000000       0.00000000       0.00000000    
      nu2 =    0.00000000       1.00000000       0.00000000    
      nu3 =    0.00000000       0.00000000       1.00000000    
      UTM x:    381348.05299547792     
      UTM y:    8332852.5562975276     
      depth:    10000.000000000000       m
      z:    10000.000000000000     



 station #           22     DB    L09
      original latitude:   -15.0696001    
      original longitude:   -172.123001    
      original UTM x:    379301.531    
      original UTM y:    8333683.00    
      original depth:   -10000.0000      m
      horizontal distance km:    17.7492065    
      target x, y, z:    379301.531       8333683.00       10000.0000    
      closest estimate found:    0.00000000      m away

      receiver located in slice            8
                       in element          455
                       in elastic domain
      at coordinates: 
      xi    =  -0.85485269687247678     
      eta   =  -0.64678065950616404     
      gamma =    1.0000000000000000     
      rotation matrix: 
      nu1 =    1.00000000       0.00000000       0.00000000    
      nu2 =    0.00000000       1.00000000       0.00000000    
      nu3 =    0.00000000       0.00000000       1.00000000    
      UTM x:    379301.52415758581     
      UTM y:    8333682.9662479591     
      depth:    10000.000000000000       m
      z:    10000.000000000000     



 station #           23     DB    L10
      original latitude:   -15.0621004    
      original longitude:   -172.143005    
      original UTM x:    377147.406    
      original UTM y:    8334501.50    
      original depth:   -10000.0000      m
      horizontal distance km:    20.0533009    
      target x, y, z:    377147.406       8334501.50       10000.0000    
      closest estimate found:    5.82076609E-11  m away

      receiver located in slice            8
                       in element          490
                       in elastic domain
      at coordinates: 
      xi    =  -0.91113730405492532     
      eta   =   0.13903480229301649     
      gamma =   -1.0000000000000018     
      rotation matrix: 
      nu1 =    1.00000000       0.00000000       0.00000000    
      nu2 =    0.00000000       1.00000000       0.00000000    
      nu3 =    0.00000000       0.00000000       1.00000000    
      UTM x:    377147.40311640064     
      UTM y:    8334501.5895052897     
      depth:    10000.000000000000       m
      z:    10000.000000000000     



 station #           24     DB    L11
      original latitude:   -15.0544996    
      original longitude:   -172.162003    
      original UTM x:    375100.562    
      original UTM y:    8335331.50    
      original depth:   -10000.0000      m
      horizontal distance km:    22.2620125    
      target x, y, z:    375100.562       8335331.50       10000.0000    
      closest estimate found:    0.00000000      m away

      receiver located in slice            8
                       in element          489
                       in elastic domain
      at coordinates: 
      xi    =  -0.86498905075888177     
      eta   =   0.93583503584009808     
      gamma =  -0.99999999999999822     
      rotation matrix: 
      nu1 =    1.00000000       0.00000000       0.00000000    
      nu2 =    0.00000000       1.00000000       0.00000000    
      nu3 =    0.00000000       0.00000000       1.00000000    
      UTM x:    375100.56162660656     
      UTM y:    8335331.6561485864     
      depth:    10000.000000000000       m
      z:    10000.000000000000     



 station #           25     DB    L12
      original latitude:   -15.0469999    
      original longitude:   -172.181000    
      original UTM x:    373053.625    
      original UTM y:    8336150.50    
      original depth:   -10000.0000      m
      horizontal distance km:    24.4666538    
      target x, y, z:    373053.625       8336150.50       10000.0000    
      closest estimate found:    9.33139788E-10  m away

      receiver located in slice            8
                       in element          494
                       in elastic domain
      at coordinates: 
      xi    =  -0.81895777745997089     
      eta   =  -0.27814393092097928     
      gamma =   -1.0000000000000000     
      rotation matrix: 
      nu1 =    1.00000000       0.00000000       0.00000000    
      nu2 =    0.00000000       1.00000000       0.00000000    
      nu3 =    0.00000000       0.00000000       1.00000000    
      UTM x:    373053.62462203426     
      UTM y:    8336150.4935599621     
      depth:    10000.000000000000       m
      z:    10000.000000000000     



 station #           26     DB    L13
      original latitude:   -15.0394001    
      original longitude:   -172.199997    
      original UTM x:    371006.469    
      original UTM y:    8336980.00    
      original depth:   -10000.0000      m
      horizontal distance km:    26.6755352    
      target x, y, z:    371006.469       8336980.00       10000.0000    
      closest estimate found:    0.00000000      m away

      receiver located in slice            8
                       in element          493
                       in elastic domain
      at coordinates: 
      xi    =  -0.77313193834140692     
      eta   =   0.51833633259063960     
      gamma =   -1.0000000000000000     
      rotation matrix: 
      nu1 =    1.00000000       0.00000000       0.00000000    
      nu2 =    0.00000000       1.00000000       0.00000000    
      nu3 =    0.00000000       0.00000000       1.00000000    
      UTM x:    371006.47451865469     
      UTM y:    8336980.2268744772     
      depth:    10000.000000000000       m
      z:    10000.000000000000     



 station #           27     DB    M01
      original latitude:   -15.1300001    
      original longitude:   -171.970001    
      original UTM x:    395776.688    
      original UTM y:    8327079.50    
      original depth:   -20000.0000      m
      horizontal distance km:    9.31322619E-13
      target x, y, z:    395776.688       8327079.50       20000.0000    
      closest estimate found:    5.83212367E-11  m away

      receiver located in slice            9
                       in element          654
                       in elastic domain
      at coordinates: 
      xi    =   0.87194496909104624     
      eta   =  -0.98588279467536477     
      gamma =  -0.99999999999999634     
      rotation matrix: 
      nu1 =    1.00000000       0.00000000       0.00000000    
      nu2 =    0.00000000       1.00000000       0.00000000    
      nu3 =    0.00000000       0.00000000       1.00000000    
      UTM x:    395776.69610082352     
      UTM y:    8327079.7065986469     
      depth:    20000.000000000004       m
      z:    20000.000000000004     



 station #           28     DB    M02
      original latitude:   -15.1225004    
      original longitude:   -171.988998    
      original UTM x:    393731.281    
      original UTM y:    8327900.00    
      original depth:   -20000.0000      m
      horizontal distance km:    2.20384574    
      target x, y, z:    393731.281       8327900.00       20000.0000    
      closest estimate found:    0.00000000      m away

      receiver located in slice            9
                       in element          653
                       in elastic domain
      at coordinates: 
      xi    =   0.91944321402576745     
      eta   =  -0.19823254902252826     
      gamma =   -1.0000000000000000     
      rotation matrix: 
      nu1 =    1.00000000       0.00000000       0.00000000    
      nu2 =    0.00000000       1.00000000       0.00000000    
      nu3 =    0.00000000       0.00000000       1.00000000    
      UTM x:    393731.29671449331     
      UTM y:    8327900.2412420558     
      depth:    20000.000000000000       m
      z:    20000.000000000000     



 station #           29     DB    M03
      original latitude:   -15.1148996    
      original longitude:   -172.007996    
      original UTM x:    391685.688    
      original UTM y:    8328731.50    
      original depth:   -20000.0000      m
      horizontal distance km:    4.41194677    
      target x, y, z:    391685.688       8328731.50       20000.0000    
      closest estimate found:    5.82076609E-11  m away

      receiver located in slice            9
                       in element          652
                       in elastic domain
      at coordinates: 
      xi    =   0.96677535874711451     
      eta   =   0.59987411689300207     
      gamma =   -1.0000000000000000     
      rotation matrix: 
      nu1 =    1.00000000       0.00000000       0.00000000    
      nu2 =    0.00000000       1.00000000       0.00000000    
      nu3 =    0.00000000       0.00000000       1.00000000    
      UTM x:    391685.69459261250     
      UTM y:    8328731.6688612737     
      depth:    20000.000000000000       m
      z:    20000.000000000000     



 station #           30     DB    M04
      original latitude:   -15.1073999    
      original longitude:   -172.028000    
      original UTM x:    389532.531    
      original UTM y:    8329551.50    
      original depth:   -20000.0000      m
      horizontal distance km:    6.71556425    
      target x, y, z:    389532.531       8329551.50       20000.0000    
      closest estimate found:    0.00000000      m away

      receiver located in slice            9
                       in element          657
                       in elastic domain
      at coordinates: 
      xi    =   0.91139485719382884     
      eta   =  -0.61318923457845476     
      gamma =   -1.0000000000000000     
      rotation matrix: 
      nu1 =    1.00000000       0.00000000       0.00000000    
      nu2 =    0.00000000       1.00000000       0.00000000    
      nu3 =    0.00000000       0.00000000       1.00000000    
      UTM x:    389532.52155617840     
      UTM y:    8329551.3634121865     
      depth:    20000.000000000000       m
      z:    20000.000000000000     



 station #           31     DB    M05
      original latitude:   -15.0998001    
      original longitude:   -172.046997    
      original UTM x:    387486.594    
      original UTM y:    8330382.50    
      original depth:   -20000.0000      m
      horizontal distance km:    8.92376804    
      target x, y, z:    387486.594       8330382.50       20000.0000    
      closest estimate found:    0.00000000      m away

      receiver located in slice            9
                       in element          620
                       in elastic domain
      at coordinates: 
      xi    =   0.95842958874797668     
      eta   =   0.18477657815665938     
      gamma =   0.99999999999999634     
      rotation matrix: 
      nu1 =    1.00000000       0.00000000       0.00000000    
      nu2 =    0.00000000       1.00000000       0.00000000    
      nu3 =    0.00000000       0.00000000       1.00000000    
      UTM x:    387486.60799652513     
      UTM y:    8330382.4448061511     
      depth:    20000.000000000000       m
      z:    20000.000000000000     



 station #           32     DB    M06
      original latitude:   -15.0923004    
      original longitude:   -172.065994    
      original UTM x:    385440.594    
      original UTM y:    8331202.50    
      original depth:   -20000.0000      m
      horizontal distance km:    11.1279268    
      target x, y, z:    385440.594       8331202.50       20000.0000    
      closest estimate found:    0.00000000      m away

      receiver located in slice            9
                       in element          656
                       in elastic domain
      at coordinates: 
      xi    =  -0.99466016874683005     
      eta   =   0.97195954592491618     
      gamma =   -1.0000000000000000     
      rotation matrix: 
      nu1 =    1.00000000       0.00000000       0.00000000    
      nu2 =    0.00000000       1.00000000       0.00000000    
      nu3 =    0.00000000       0.00000000       1.00000000    
      UTM x:    385440.59389041201     
      UTM y:    8331202.2958670808     
      depth:    20000.000000000000       m
      z:    20000.000000000000     



 station #           33     DB    M07
      original latitude:   -15.0846996    
      original longitude:   -172.085007    
      original UTM x:    383394.375    
      original UTM y:    8332033.00    
      original depth:   -20000.0000      m
      horizontal distance km:    13.3363209    
      target x, y, z:    383394.375       8332033.00       20000.0000    
      closest estimate found:    0.00000000      m away

      receiver located in slice            9
                       in element          661
                       in elastic domain
      at coordinates: 
      xi    =  -0.94791837734939055     
      eta   =  -0.23058213207281578     
      gamma =   -1.0000000000000000     
      rotation matrix: 
      nu1 =    1.00000000       0.00000000       0.00000000    
      nu2 =    0.00000000       1.00000000       0.00000000    
      nu3 =    0.00000000       0.00000000       1.00000000    
      UTM x:    383394.37288237864     
      UTM y:    8332033.0410639131     
      depth:    20000.000000000000       m
      z:    20000.000000000000     



 station #           34     DB    M08
      original latitude:   -15.0771999    
      original longitude:   -172.104004    
      original UTM x:    381348.062    
      original UTM y:    8332852.50    
      original depth:   -20000.0000      m
      horizontal distance km:    15.5406418    
      target x, y, z:    381348.062       8332852.50       20000.0000    
      closest estimate found:    0.00000000      m away

      receiver located in slice            8
                       in element          666
                       in elastic domain
      at coordinates: 
      xi    =  -0.90129925109125442     
      eta   =   0.55608955846146857     
      gamma =   -1.0000000000000000     
      rotation matrix: 
      nu1 =    1.00000000       0.00000000       0.00000000    
      nu2 =    0.00000000       1.00000000       0.00000000    
      nu3 =    0.00000000       0.00000000       1.00000000    
      UTM x:    381348.05299547792     
      UTM y:    8332852.5562975276     
      depth:    20000.000000000000       m
      z:    20000.000000000000     



 station #           35     DB    M09
      original latitude:   -15.0696001    
      original longitude:   -172.123001    
      original UTM x:    379301.531    
      original UTM y:    8333683.00    
      original depth:   -20000.0000      m
      horizontal distance km:    17.7492065    
      target x, y, z:    379301.531       8333683.00       20000.0000    
      closest estimate found:    9.31322575E-10  m away

      receiver located in slice            8
                       in element          635
                       in elastic domain
      at coordinates: 
      xi    =  -0.85485269687241927     
      eta   =  -0.64678065950653951     
      gamma =    1.0000000000000000     
      rotation matrix: 
      nu1 =    1.00000000       0.00000000       0.00000000    
      nu2 =    0.00000000       1.00000000       0.00000000    
      nu3 =    0.00000000       0.00000000       1.00000000    
      UTM x:    379301.52415758581     
      UTM y:    8333682.9662479581     
      depth:    20000.000000000000       m
      z:    20000.000000000000     



 station #           36     DB    M10
      original latitude:   -15.0621004    
      original longitude:   -172.143005    
      original UTM x:    377147.406    
      original UTM y:    8334501.50    
      original depth:   -20000.0000      m
      horizontal distance km:    20.0533009    
      target x, y, z:    377147.406       8334501.50       20000.0000    
      closest estimate found:    5.82076609E-11  m away

      receiver located in slice            8
                       in element          670
                       in elastic domain
      at coordinates: 
      xi    =  -0.91113730405498083     
      eta   =   0.13903480229391049     
      gamma =   -1.0000000000000036     
      rotation matrix: 
      nu1 =    1.00000000       0.00000000       0.00000000    
      nu2 =    0.00000000       1.00000000       0.00000000    
      nu3 =    0.00000000       0.00000000       1.00000000    
      UTM x:    377147.40311640053     
      UTM y:    8334501.5895052897     
      depth:    20000.000000000000       m
      z:    20000.000000000000     



 station #           37     DB    M11
      original latitude:   -15.0544996    
      original longitude:   -172.162003    
      original UTM x:    375100.562    
      original UTM y:    8335331.50    
      original depth:   -20000.0000      m
      horizontal distance km:    22.2620125    
      target x, y, z:    375100.562       8335331.50       20000.0000    
      closest estimate found:    3.63797881E-12  m away

      receiver located in slice            8
                       in element          669
                       in elastic domain
      at coordinates: 
      xi    =  -0.86498905075882626     
      eta   =   0.93583503584099204     
      gamma =   -1.0000000000000000     
      rotation matrix: 
      nu1 =    1.00000000       0.00000000       0.00000000    
      nu2 =    0.00000000       1.00000000       0.00000000    
      nu3 =    0.00000000       0.00000000       1.00000000    
      UTM x:    375100.56162660656     
      UTM y:    8335331.6561485864     
      depth:    19999.999999999996       m
      z:    19999.999999999996     



 station #           38     DB    M12
      original latitude:   -15.0469999    
      original longitude:   -172.181000    
      original UTM x:    373053.625    
      original UTM y:    8336150.50    
      original depth:   -20000.0000      m
      horizontal distance km:    24.4666538    
      target x, y, z:    373053.625       8336150.50       20000.0000    
      closest estimate found:    9.33139788E-10  m away

      receiver located in slice            8
                       in element          638
                       in elastic domain
      at coordinates: 
      xi    =  -0.81895777745997089     
      eta   =  -0.27814393092097928     
      gamma =    1.0000000000000000     
      rotation matrix: 
      nu1 =    1.00000000       0.00000000       0.00000000    
      nu2 =    0.00000000       1.00000000       0.00000000    
      nu3 =    0.00000000       0.00000000       1.00000000    
      UTM x:    373053.62462203426     
      UTM y:    8336150.4935599621     
      depth:    20000.000000000000       m
      z:    20000.000000000000     



 station #           39     DB    M13
      original latitude:   -15.0394001    
      original longitude:   -172.199997    
      original UTM x:    371006.469    
      original UTM y:    8336980.00    
      original depth:   -20000.0000      m
      horizontal distance km:    26.6755352    
      target x, y, z:    371006.469       8336980.00       20000.0000    
      closest estimate found:    0.00000000      m away

      receiver located in slice            8
                       in element          637
                       in elastic domain
      at coordinates: 
      xi    =  -0.77313193834146243     
      eta   =   0.51833633258974554     
      gamma =   0.99999999999999634     
      rotation matrix: 
      nu1 =    1.00000000       0.00000000       0.00000000    
      nu2 =    0.00000000       1.00000000       0.00000000    
      nu3 =    0.00000000       0.00000000       1.00000000    
      UTM x:    371006.47451865469     
      UTM y:    8336980.2268744772     
      depth:    20000.000000000000       m
      z:    20000.000000000000     



 station #           40     CC    S10
      original latitude:   -15.0930996    
      original longitude:   -171.735001    
      original UTM x:    421014.406    
      original UTM y:    8331259.50    
      original depth:   -0.00000000      m
      horizontal distance km:    25.5814857    
      target x, y, z:    421014.406       8331259.50       0.00000000    
      closest estimate found:    2.39051265E-14  m away

      receiver located in slice           11
                       in element          270
                       in elastic domain
      at coordinates: 
      xi    =   0.96326023177191678     
      eta   =  -0.97322416706857762     
      gamma =    1.0000000000000000     
      rotation matrix: 
      nu1 =    1.00000000       0.00000000       0.00000000    
      nu2 =    0.00000000       1.00000000       0.00000000    
      nu3 =    0.00000000       0.00000000       1.00000000    
      UTM x:    421014.41789842781     
      UTM y:    8331259.3937239572     
      depth:    2.3905125984506607E-014  m
      z:    2.3905125984506607E-014



 station #           41     CC    S11
      original latitude:   -15.0892000    
      original longitude:   -171.735992    
      original UTM x:    420905.500    
      original UTM y:    8331690.50    
      original depth:   -0.00000000      m
      horizontal distance km:    25.5483036    
      target x, y, z:    420905.500       8331690.50       0.00000000    
      closest estimate found:    3.94072389E-14  m away

      receiver located in slice           11
                       in element          270
                       in elastic domain
      at coordinates: 
      xi    =   0.85929688090069822     
      eta   =  -0.55946824955286201     
      gamma =   0.99999999999999967     
      rotation matrix: 
      nu1 =    1.00000000       0.00000000       0.00000000    
      nu2 =    0.00000000       1.00000000       0.00000000    
      nu3 =    0.00000000       0.00000000       1.00000000    
      UTM x:    420905.50654182606     
      UTM y:    8331690.4239510279     
      depth:    3.9407238793541297E-014  m
      z:    3.9407238793541297E-014



 station #           42     CC    S12
      original latitude:   -15.0852003    
      original longitude:   -171.735992    
      original UTM x:    420904.031    
      original UTM y:    8332133.00    
      original depth:   -0.00000000      m
      horizontal distance km:    25.6303978    
      target x, y, z:    420904.031       8332133.00       0.00000000    
      closest estimate found:    4.61336969E-14  m away

      receiver located in slice           11
                       in element          270
                       in elastic domain
      at coordinates: 
      xi    =   0.85788463880739840     
      eta   =  -0.13474966568381974     
      gamma =   0.99999999999999922     
      rotation matrix: 
      nu1 =    1.00000000       0.00000000       0.00000000    
      nu2 =    0.00000000       1.00000000       0.00000000    
      nu3 =    0.00000000       0.00000000       1.00000000    
      UTM x:    420904.02708583564     
      UTM y:    8332132.8745357739     
      depth:    4.6133695901063935E-014  m
      z:   -4.6133695901063935E-014



 station #           43     CC    S13
      original latitude:   -15.0812998    
      original longitude:   -171.737000    
      original UTM x:    420795.125    
      original UTM y:    8332564.00    
      original depth:   -0.00000000      m
      horizontal distance km:    25.6124477    
      target x, y, z:    420795.125       8332564.00       0.00000000    
      closest estimate found:    9.31322575E-10  m away

      receiver located in slice           11
                       in element          270
                       in elastic domain
      at coordinates: 
      xi    =   0.75391631118207447     
      eta   =   0.27900574186097155     
      gamma =   0.99999999999999900     
      rotation matrix: 
      nu1 =    1.00000000       0.00000000       0.00000000    
      nu2 =    0.00000000       1.00000000       0.00000000    
      nu3 =    0.00000000       0.00000000       1.00000000    
      UTM x:    420795.11051561742     
      UTM y:    8332563.9042315846     
      depth:    2.0919927804010034E-014  m
      z:    2.0919927804010034E-014



 station #           44     CC    S14
      original latitude:   -15.0774002    
      original longitude:   -171.738007    
      original UTM x:    420686.188    
      original UTM y:    8332995.00    
      original depth:   -0.00000000      m
      horizontal distance km:    25.6022034    
      target x, y, z:    420686.188       8332995.00       0.00000000    
      closest estimate found:    4.88464385E-14  m away

      receiver located in slice           11
                       in element          270
                       in elastic domain
      at coordinates: 
      xi    =   0.64994457092181757     
      eta   =   0.69276070165004699     
      gamma =   0.99999999999999878     
      rotation matrix: 
      nu1 =    1.00000000       0.00000000       0.00000000    
      nu2 =    0.00000000       1.00000000       0.00000000    
      nu3 =    0.00000000       0.00000000       1.00000000    
      UTM x:    420686.19037034409     
      UTM y:    8332994.9334609434     
      depth:    4.8846438656846521E-014  m
      z:    4.8846438656846521E-014



 station #           45     CC    S15
      original latitude:   -15.0734997    
      original longitude:   -171.738998    
      original UTM x:    420577.281    
      original UTM y:    8333426.00    
      original depth:   -0.00000000      m
      horizontal distance km:    25.5996723    
      target x, y, z:    420577.281       8333426.00       0.00000000    
      closest estimate found:    1.09954490E-15  m away

      receiver located in slice           11
                       in element          276
                       in elastic domain
      at coordinates: 
      xi    =   0.54596941941874821     
      eta   =  -0.89348478593378633     
      gamma =   0.99999999999999867     
      rotation matrix: 
      nu1 =    1.00000000       0.00000000       0.00000000    
      nu2 =    0.00000000       1.00000000       0.00000000    
      nu3 =    0.00000000       0.00000000       1.00000000    
      UTM x:    420577.26665147423     
      UTM y:    8333425.9622242535     
      depth:    1.0995449027690844E-015  m
      z:   -1.0995449027690844E-015



 station #           46     CC    S16
      original latitude:   -15.0696001    
      original longitude:   -171.740005    
      original UTM x:    420468.344    
      original UTM y:    8333857.00    
      original depth:   -0.00000000      m
      horizontal distance km:    25.6048603    
      target x, y, z:    420468.344       8333857.00       0.00000000    
      closest estimate found:    9.33139788E-10  m away

      receiver located in slice           11
                       in element          276
                       in elastic domain
      at coordinates: 
      xi    =   0.44199085806533683     
      eta   =  -0.47973072051045040     
      gamma =   0.99999999999999900     
      rotation matrix: 
      nu1 =    1.00000000       0.00000000       0.00000000    
      nu2 =    0.00000000       1.00000000       0.00000000    
      nu3 =    0.00000000       0.00000000       1.00000000    
      UTM x:    420468.33936046640     
      UTM y:    8333856.9905219087     
      depth:    2.8879846297739798E-014  m
      z:   -2.8879846297739798E-014



 station #           47     CC    S17
      original latitude:   -15.0656996    
      original longitude:   -171.740997    
      original UTM x:    420359.406    
      original UTM y:    8334288.00    
      original depth:   -0.00000000      m
      horizontal distance km:    25.6177578    
      target x, y, z:    420359.406       8334288.00       0.00000000    
      closest estimate found:    5.82076609E-11  m away

      receiver located in slice           11
                       in element          276
                       in elastic domain
      at coordinates: 
      xi    =   0.33800888825409720     
      eta   =   -6.5977101695439327E-002
      gamma =   0.99999999999999933     
      rotation matrix: 
      nu1 =    1.00000000       0.00000000       0.00000000    
      nu2 =    0.00000000       1.00000000       0.00000000    
      nu3 =    0.00000000       0.00000000       1.00000000    
      UTM x:    420359.40849877952     
      UTM y:    8334288.0183543088     
      depth:    1.7533654161598384E-014  m
      z:   -1.7533654161598384E-014



 station #           48     CC    S18
      original latitude:   -15.0619001    
      original longitude:   -171.742004    
      original UTM x:    420250.500    
      original UTM y:    8334708.00    
      original depth:   -0.00000000      m
      horizontal distance km:    25.6350975    
      target x, y, z:    420250.500       8334708.00       0.00000000    
      closest estimate found:    3.89100678E-14  m away

      receiver located in slice           11
                       in element          276
                       in elastic domain
      at coordinates: 
      xi    =   0.23405904682933737     
      eta   =   0.33715811728917983     
      gamma =   0.99999999999999967     
      rotation matrix: 
      nu1 =    1.00000000       0.00000000       0.00000000    
      nu2 =    0.00000000       1.00000000       0.00000000    
      nu3 =    0.00000000       0.00000000       1.00000000    
      UTM x:    420250.51129458938     
      UTM y:    8334707.9844686855     
      depth:    3.8910069168504389E-014  m
      z:    3.8910069168504389E-014



 station #           49     CC    S19
      original latitude:   -15.0580997    
      original longitude:   -171.744003    
      original UTM x:    420034.125    
      original UTM y:    8335127.50    
      original depth:   -0.00000000      m
      horizontal distance km:    25.5576057    
      target x, y, z:    420034.125       8335127.50       0.00000000    
      closest estimate found:    1.04894773E-14  m away

      receiver located in slice           11
                       in element          276
                       in elastic domain
      at coordinates: 
      xi    =    2.7502873256918258E-002
      eta   =   0.73994502969064702     
      gamma =   0.99999999999999989     
      rotation matrix: 
      nu1 =    1.00000000       0.00000000       0.00000000    
      nu2 =    0.00000000       1.00000000       0.00000000    
      nu3 =    0.00000000       0.00000000       1.00000000    
      UTM x:    420034.12433813099     
      UTM y:    8335127.5877346806     
      depth:    1.0489477152806448E-014  m
      z:    1.0489477152806448E-014



 station #           50     CC    S20
      original latitude:   -15.0543003    
      original longitude:   -171.744995    
      original UTM x:    419925.219    
      original UTM y:    8335547.50    
      original depth:   -0.00000000      m
      horizontal distance km:    25.5901451    
      target x, y, z:    419925.219       8335547.50       0.00000000    
      closest estimate found:    0.00000000      m away

      receiver located in slice           11
                       in element          282
                       in elastic domain
      at coordinates: 
      xi    =   -7.6455462104885241E-002
      eta   =  -0.85692102506842605     
      gamma =    1.0000000000000000     
      rotation matrix: 
      nu1 =    1.00000000       0.00000000       0.00000000    
      nu2 =    0.00000000       1.00000000       0.00000000    
      nu3 =    0.00000000       0.00000000       1.00000000    
      UTM x:    419925.21823574562     
      UTM y:    8335547.5525221350     
      depth:    0.0000000000000000       m
      z:    0.0000000000000000     



 station #           51     CC    S21
      original latitude:   -15.0504999    
      original longitude:   -171.746002    
      original UTM x:    419816.312    
      original UTM y:    8335967.50    
      original depth:   -0.00000000      m
      horizontal distance km:    25.6299858    
      target x, y, z:    419816.312       8335967.50       0.00000000    
      closest estimate found:    5.82076609E-11  m away

      receiver located in slice           11
                       in element          282
                       in elastic domain
      at coordinates: 
      xi    =  -0.18041712206702570     
      eta   =  -0.45378752177459158     
      gamma =    1.0000000000000000     
      rotation matrix: 
      nu1 =    1.00000000       0.00000000       0.00000000    
      nu2 =    0.00000000       1.00000000       0.00000000    
      nu3 =    0.00000000       0.00000000       1.00000000    
      UTM x:    419816.30865052965     
      UTM y:    8335967.5168491919     
      depth:    0.0000000000000000       m
      z:    0.0000000000000000     



 station #           52     CC    S22
      original latitude:   -15.0466995    
      original longitude:   -171.748001    
      original UTM x:    419599.906    
      original UTM y:    8336387.00    
      original depth:   -0.00000000      m
      horizontal distance km:    25.5768070    
      target x, y, z:    419599.906       8336387.00       0.00000000    
      closest estimate found:    0.00000000      m away

      receiver located in slice           11
                       in element          282
                       in elastic domain
      at coordinates: 
      xi    =  -0.38699064868395300     
      eta   =   -5.1003955649705938E-002
      gamma =    1.0000000000000000     
      rotation matrix: 
      nu1 =    1.00000000       0.00000000       0.00000000    
      nu2 =    0.00000000       1.00000000       0.00000000    
      nu3 =    0.00000000       0.00000000       1.00000000    
      UTM x:    419599.90351513028     
      UTM y:    8336387.1166292019     
      depth:    0.0000000000000000       m
      z:    0.0000000000000000     



 station #           53     CC    S23
      original latitude:   -15.0430002    
      original longitude:   -171.748993    
      original UTM x:    419491.031    
      original UTM y:    8336796.00    
      original depth:   -0.00000000      m
      horizontal distance km:    25.6276417    
      target x, y, z:    419491.031       8336796.00       0.00000000    
      closest estimate found:    0.00000000      m away

      receiver located in slice           11
                       in element          282
                       in elastic domain
      at coordinates: 
      xi    =  -0.49092496584936901     
      eta   =   0.34151032650128493     
      gamma =    1.0000000000000000     
      rotation matrix: 
      nu1 =    1.00000000       0.00000000       0.00000000    
      nu2 =    0.00000000       1.00000000       0.00000000    
      nu3 =    0.00000000       0.00000000       1.00000000    
      UTM x:    419491.02257405722     
      UTM y:    8336796.0183826331     
      depth:    0.0000000000000000       m
      z:    0.0000000000000000     



 station #           54     CC    S24
      original latitude:   -15.0393000    
      original longitude:   -171.751007    
      original UTM x:    419274.656    
      original UTM y:    8337204.50    
      original depth:   -0.00000000      m
      horizontal distance km:    25.5864429    
      target x, y, z:    419274.656       8337204.50       0.00000000    
      closest estimate found:    5.82076609E-11  m away

      receiver located in slice           11
                       in element          282
                       in elastic domain
      at coordinates: 
      xi    =  -0.69747467017886911     
      eta   =   0.73367342860531104     
      gamma =    1.0000000000000000     
      rotation matrix: 
      nu1 =    1.00000000       0.00000000       0.00000000    
      nu2 =    0.00000000       1.00000000       0.00000000    
      nu3 =    0.00000000       0.00000000       1.00000000    
      UTM x:    419274.64239473722     
      UTM y:    8337204.5542942490     
      depth:    0.0000000000000000       m
      z:    0.0000000000000000     



 station #           55     CC    S25
      original latitude:   -15.0355997    
      original longitude:   -171.753006    
      original UTM x:    419058.250    
      original UTM y:    8337613.00    
      original depth:   -0.00000000      m
      horizontal distance km:    25.5535336    
      target x, y, z:    419058.250       8337613.00       0.00000000    
      closest estimate found:    2.06780309E-15  m away

      receiver located in slice           11
                       in element          288
                       in elastic domain
      at coordinates: 
      xi    =  -0.90403121597169223     
      eta   =  -0.87416515243580539     
      gamma =   0.99999999999999989     
      rotation matrix: 
      nu1 =    1.00000000       0.00000000       0.00000000    
      nu2 =    0.00000000       1.00000000       0.00000000    
      nu3 =    0.00000000       0.00000000       1.00000000    
      UTM x:    419058.25504834316     
      UTM y:    8337613.0884524509     
      depth:    2.0678031345296460E-015  m
      z:   -2.0678031345296460E-015



 station #           56     CC    S26
      original latitude:   -15.0319996    
      original longitude:   -171.755005    
      original UTM x:    418841.906    
      original UTM y:    8338010.50    
      original depth:   -0.00000000      m
      horizontal distance km:    25.5242462    
      target x, y, z:    418841.906       8338010.50       0.00000000    
      closest estimate found:    1.86264515E-09  m away

      receiver located in slice           11
                       in element          287
                       in elastic domain
      at coordinates: 
      xi    =   0.88943983805457194     
      eta   =  -0.49262336868588041     
      gamma =   0.99999999999999956     
      rotation matrix: 
      nu1 =    1.00000000       0.00000000       0.00000000    
      nu2 =    0.00000000       1.00000000       0.00000000    
      nu3 =    0.00000000       0.00000000       1.00000000    
      UTM x:    418841.89834284951     
      UTM y:    8338010.5596056702     
      depth:    8.1421967011810094E-015  m
      z:   -8.1421967011810094E-015



 station #           57     CC    S27
      original latitude:   -15.0284004    
      original longitude:   -171.755997    
      original UTM x:    418733.031    
      original UTM y:    8338408.50    
      original depth:   -0.00000000      m
      horizontal distance km:    25.5994682    
      target x, y, z:    418733.031       8338408.50       0.00000000    
      closest estimate found:    5.51032439E-14  m away

      receiver located in slice           11
                       in element          287
                       in elastic domain
      at coordinates: 
      xi    =   0.78552180874376742     
      eta   =  -0.11072995267199830     
      gamma =   0.99999999999999922     
      rotation matrix: 
      nu1 =    1.00000000       0.00000000       0.00000000    
      nu2 =    0.00000000       1.00000000       0.00000000    
      nu3 =    0.00000000       0.00000000       1.00000000    
      UTM x:    418733.03608855035     
      UTM y:    8338408.3970718039     
      depth:    5.5103242463361040E-014  m
      z:   -5.5103242463361040E-014



 station #           58     CC    S28
      original latitude:   -15.0248003    
      original longitude:   -171.757996    
      original UTM x:    418516.656    
      original UTM y:    8338806.00    
      original depth:   -0.00000000      m
      horizontal distance km:    25.5853291    
      target x, y, z:    418516.656       8338806.00       0.00000000    
      closest estimate found:    2.43095847E-14  m away

      receiver located in slice           11
                       in element          287
                       in elastic domain
      at coordinates: 
      xi    =   0.57897986972518467     
      eta   =   0.27080932510230654     
      gamma =   0.99999999999999911     
      rotation matrix: 
      nu1 =    1.00000000       0.00000000       0.00000000    
      nu2 =    0.00000000       1.00000000       0.00000000    
      nu3 =    0.00000000       0.00000000       1.00000000    
      UTM x:    418516.66727133945     
      UTM y:    8338805.8656144254     
      depth:    2.4309584930774078E-014  m
      z:    2.4309584930774078E-014



 station #           59     CC    S29
      original latitude:   -15.0212002    
      original longitude:   -171.759995    
      original UTM x:    418300.281    
      original UTM y:    8339203.50    
      original depth:   -0.00000000      m
      horizontal distance km:    25.5791836    
      target x, y, z:    418300.281       8339203.50       0.00000000    
      closest estimate found:    3.20446659E-14  m away

      receiver located in slice           11
                       in element          287
                       in elastic domain
      at coordinates: 
      xi    =   0.37243127192263170     
      eta   =   0.65234692270519568     
      gamma =   0.99999999999999900     
      rotation matrix: 
      nu1 =    1.00000000       0.00000000       0.00000000    
      nu2 =    0.00000000       1.00000000       0.00000000    
      nu3 =    0.00000000       0.00000000       1.00000000    
      UTM x:    418300.29147853213     
      UTM y:    8339203.3324067295     
      depth:    3.2044665106576365E-014  m
      z:    3.2044665106576365E-014



 station #           60     CC    S30
      original latitude:   -15.0177002    
      original longitude:   -171.761993    
      original UTM x:    418083.938    
      original UTM y:    8339589.50    
      original depth:   -0.00000000      m
      horizontal distance km:    25.5756588    
      target x, y, z:    418083.938       8339589.50       0.00000000    
      closest estimate found:    5.82076887E-11  m away

      receiver located in slice           15
                       in element          257
                       in elastic domain
      at coordinates: 
      xi    =   0.16591240682996389     
      eta   =  -0.97673511373262223     
      gamma =   0.99999999999999889     
      rotation matrix: 
      nu1 =    1.00000000       0.00000000       0.00000000    
      nu2 =    0.00000000       1.00000000       0.00000000    
      nu3 =    0.00000000       0.00000000       1.00000000    
      UTM x:    418083.94683306111     
      UTM y:    8339589.7361952690     
      depth:    5.3342456745015501E-014  m
      z:   -5.3342456745015501E-014



 station #           61     CC    S31
      original latitude:   -15.0142002    
      original longitude:   -171.764008    
      original UTM x:    417867.594    
      original UTM y:    8339976.00    
      original depth:   -0.00000000      m
      horizontal distance km:    25.5797920    
      target x, y, z:    417867.594       8339976.00       0.00000000    
      closest estimate found:    9.31322575E-10  m away

      receiver located in slice           15
                       in element          257
                       in elastic domain
      at coordinates: 
      xi    =   -4.0612938483606489E-002
      eta   =  -0.60581882985260926     
      gamma =   0.99999999999999911     
      rotation matrix: 
      nu1 =    1.00000000       0.00000000       0.00000000    
      nu2 =    0.00000000       1.00000000       0.00000000    
      nu3 =    0.00000000       0.00000000       1.00000000    
      UTM x:    417867.59539905260     
      UTM y:    8339976.1382340016     
      depth:    1.0610009385480766E-015  m
      z:   -1.0610009385480766E-015



 station #           62     CC    S32
      original latitude:   -15.0108004    
      original longitude:   -171.766006    
      original UTM x:    417651.281    
      original UTM y:    8340351.50    
      original depth:   -0.00000000      m
      horizontal distance km:    25.5858765    
      target x, y, z:    417651.281       8340351.50       0.00000000    
      closest estimate found:    5.82076679E-11  m away

      receiver located in slice           15
                       in element          257
                       in elastic domain
      at coordinates: 
      xi    =  -0.24710819801739758     
      eta   =  -0.24552218182151456     
      gamma =   0.99999999999999911     
      rotation matrix: 
      nu1 =    1.00000000       0.00000000       0.00000000    
      nu2 =    0.00000000       1.00000000       0.00000000    
      nu3 =    0.00000000       0.00000000       1.00000000    
      UTM x:    417651.27548224875     
      UTM y:    8340351.4772670874     
      depth:    3.3863256179042586E-014  m
      z:   -3.3863256179042586E-014



 station #           63     CC    S33
      original latitude:   -15.0073996    
      original longitude:   -171.768005    
      original UTM x:    417434.938    
      original UTM y:    8340727.00    
      original depth:   -0.00000000      m
      horizontal distance km:    25.5992870    
      target x, y, z:    417434.938       8340727.00       0.00000000    
      closest estimate found:    4.23558554E-14  m away

      receiver located in slice           15
                       in element          257
                       in elastic domain
      at coordinates: 
      xi    =  -0.45360975916968971     
      eta   =   0.11477278670931919     
      gamma =   0.99999999999999900     
      rotation matrix: 
      nu1 =    1.00000000       0.00000000       0.00000000    
      nu2 =    0.00000000       1.00000000       0.00000000    
      nu3 =    0.00000000       0.00000000       1.00000000    
      UTM x:    417434.94896400732     
      UTM y:    8340726.8145505544     
      depth:    4.2355856168389489E-014  m
      z:   -4.2355856168389489E-014



 station #           64     CC    S34
      original latitude:   -15.0039997    
      original longitude:   -171.770996    
      original UTM x:    417111.094    
      original UTM y:    8341102.00    
      original depth:   -0.00000000      m
      horizontal distance km:    25.5298901    
      target x, y, z:    417111.094       8341102.00       0.00000000    
      closest estimate found:    1.75609446E-14  m away

      receiver located in slice           15
                       in element          257
                       in elastic domain
      at coordinates: 
      xi    =  -0.76274857654610861     
      eta   =   0.47470675203979601     
      gamma =   0.99999999999999878     
      rotation matrix: 
      nu1 =    1.00000000       0.00000000       0.00000000    
      nu2 =    0.00000000       1.00000000       0.00000000    
      nu3 =    0.00000000       0.00000000       1.00000000    
      UTM x:    417111.10190133541     
      UTM y:    8341101.7757589370     
      depth:    1.7560943793050871E-014  m
      z:    1.7560943793050871E-014



 station #           65     CC    S35
      original latitude:   -15.0005999    
      original longitude:   -171.772995    
      original UTM x:    416894.750    
      original UTM y:    8341477.00    
      original depth:   -0.00000000      m
      horizontal distance km:    25.5589085    
      target x, y, z:    416894.750       8341477.00       0.00000000    
      closest estimate found:    1.97554358E-14  m away

      receiver located in slice           15
                       in element          257
                       in elastic domain
      at coordinates: 
      xi    =  -0.96926439972724265     
      eta   =   0.83499750626374702     
      gamma =   0.99999999999999833     
      rotation matrix: 
      nu1 =    1.00000000       0.00000000       0.00000000    
      nu2 =    0.00000000       1.00000000       0.00000000    
      nu3 =    0.00000000       0.00000000       1.00000000    
      UTM x:    416894.76044250448     
      UTM y:    8341477.1086521503     
      depth:    1.9755435293997255E-014  m
      z:   -1.9755435293997255E-014



 station #           66     CC    S36
      original latitude:   -14.9973001    
      original longitude:   -171.774994    
      original UTM x:    416678.438    
      original UTM y:    8341841.50    
      original depth:   -0.00000000      m
      horizontal distance km:    25.5888710    
      target x, y, z:    416678.438       8341841.50       0.00000000    
      closest estimate found:    1.43405812E-14  m away

      receiver located in slice           15
                       in element          262
                       in elastic domain
      at coordinates: 
      xi    =   0.82425306393695885     
      eta   =  -0.81528705199244289     
      gamma =   0.99999999999999833     
      rotation matrix: 
      nu1 =    1.00000000       0.00000000       0.00000000    
      nu2 =    0.00000000       1.00000000       0.00000000    
      nu3 =    0.00000000       0.00000000       1.00000000    
      UTM x:    416678.45110819873     
      UTM y:    8341841.3785353508     
      depth:    1.4340580953611301E-014  m
      z:   -1.4340580953611301E-014



 station #           67     CC    S37
      original latitude:   -14.9940996    
      original longitude:   -171.778000    
      original UTM x:    416354.656    
      original UTM y:    8342194.00    
      original depth:   -0.00000000      m
      horizontal distance km:    25.5323429    
      target x, y, z:    416354.656       8342194.00       0.00000000    
      closest estimate found:    1.06164458E-14  m away

      receiver located in slice           15
                       in element          262
                       in elastic domain
      at coordinates: 
      xi    =   0.51516761853113002     
      eta   =  -0.47651665549821792     
      gamma =   0.99999999999999867     
      rotation matrix: 
      nu1 =    1.00000000       0.00000000       0.00000000    
      nu2 =    0.00000000       1.00000000       0.00000000    
      nu3 =    0.00000000       0.00000000       1.00000000    
      UTM x:    416354.65512737562     
      UTM y:    8342194.2079032995     
      depth:    1.0616445704924426E-014  m
      z:    1.0616445704924426E-014



 station #           68     CC    S38
      original latitude:   -14.9909000    
      original longitude:   -171.779999    
      original UTM x:    416138.375    
      original UTM y:    8342547.50    
      original depth:   -0.00000000      m
      horizontal distance km:    25.5704460    
      target x, y, z:    416138.375       8342547.50       0.00000000    
      closest estimate found:    1.86355442E-09  m away

      receiver located in slice           15
                       in element          262
                       in elastic domain
      at coordinates: 
      xi    =   0.30870895923011660     
      eta   =  -0.13738634001662167     
      gamma =   0.99999999999999900     
      rotation matrix: 
      nu1 =    1.00000000       0.00000000       0.00000000    
      nu2 =    0.00000000       1.00000000       0.00000000    
      nu3 =    0.00000000       0.00000000       1.00000000    
      UTM x:    416138.37032625853     
      UTM y:    8342547.4121268746     
      depth:    3.5246127951378367E-014  m
      z:    3.5246127951378367E-014



 station #           69     CC    S39
      original latitude:   -14.9877005    
      original longitude:   -171.783005    
      original UTM x:    415814.562    
      original UTM y:    8342900.00    
      original depth:   -0.00000000      m
      horizontal distance km:    25.5304718    
[...]
 Estimated remaining time in seconds =    302.008118    
 Estimated remaining time in hh:mm:ss =      0 h 05 m 02 s
 Estimated total run time in seconds =    464.627899    
 Estimated total run time in hh:mm:ss =      0 h 07 m 44 s
 We have done    35.0000000     % of that
 The run will finish approximately on (in local time): Thu May 30, 2019 12:15

 Time step #         7500
 Time:    58.9900017      seconds
 Elapsed time in seconds =    169.60296106338501     
 Elapsed time in hh:mm:ss =      0 h 02 m 49 s
 Mean elapsed time per time step in seconds =    2.26137284E-02
 Max norm displacement vector U in all slices (m) =    48303.9219    
 Time steps done =         7500  out of        20000
 Time steps remaining =        12500
 Estimated remaining time in seconds =    282.671600    
 Estimated remaining time in hh:mm:ss =      0 h 04 m 42 s
 Estimated total run time in seconds =    452.274567    
 Estimated total run time in hh:mm:ss =      0 h 07 m 32 s
 We have done    37.5000000     % of that
 The run will finish approximately on (in local time): Thu May 30, 2019 12:15

 Time step #         8000
 Time:    63.9900017      seconds
 Elapsed time in seconds =    176.49032497406006     
 Elapsed time in hh:mm:ss =      0 h 02 m 56 s
 Mean elapsed time per time step in seconds =    2.20612902E-02
 Max norm displacement vector U in all slices (m) =    48304.6289    
 Time steps done =         8000  out of        20000
 Time steps remaining =        12000
 Estimated remaining time in seconds =    264.735474    
 Estimated remaining time in hh:mm:ss =      0 h 04 m 24 s
 Estimated total run time in seconds =    441.225800    
 Estimated total run time in hh:mm:ss =      0 h 07 m 21 s
 We have done    40.0000000     % of that
 The run will finish approximately on (in local time): Thu May 30, 2019 12:15

 Time step #         8500
 Time:    68.9899979      seconds
 Elapsed time in seconds =    183.15859889984131     
 Elapsed time in hh:mm:ss =      0 h 03 m 03 s
 Mean elapsed time per time step in seconds =    2.15480700E-02
 Max norm displacement vector U in all slices (m) =    48305.5156    
 Time steps done =         8500  out of        20000
 Time steps remaining =        11500
 Estimated remaining time in seconds =    247.802811    
 Estimated remaining time in hh:mm:ss =      0 h 04 m 07 s
 Estimated total run time in seconds =    430.961395    
 Estimated total run time in hh:mm:ss =      0 h 07 m 10 s
 We have done    42.5000000     % of that
 The run will finish approximately on (in local time): Thu May 30, 2019 12:15

 Time step #         9000
 Time:    73.9899979      seconds
 Elapsed time in seconds =    190.19996404647827     
 Elapsed time in hh:mm:ss =      0 h 03 m 10 s
 Mean elapsed time per time step in seconds =    2.11333297E-02
 Max norm displacement vector U in all slices (m) =    48306.0469    
 Time steps done =         9000  out of        20000
 Time steps remaining =        11000
 Estimated remaining time in seconds =    232.466629    
 Estimated remaining time in hh:mm:ss =      0 h 03 m 52 s
 Estimated total run time in seconds =    422.666595    
 Estimated total run time in hh:mm:ss =      0 h 07 m 02 s
 We have done    45.0000000     % of that
 The run will finish approximately on (in local time): Thu May 30, 2019 12:15

 Time step #         9500
 Time:    78.9899979      seconds
 Elapsed time in seconds =    197.19518804550171     
 Elapsed time in hh:mm:ss =      0 h 03 m 17 s
 Mean elapsed time per time step in seconds =    2.07573883E-02
 Max norm displacement vector U in all slices (m) =    48308.7695    
 Time steps done =         9500  out of        20000
 Time steps remaining =        10500
 Estimated remaining time in seconds =    217.952576    
 Estimated remaining time in hh:mm:ss =      0 h 03 m 37 s
 Estimated total run time in seconds =    415.147766    
 Estimated total run time in hh:mm:ss =      0 h 06 m 55 s
 We have done    47.5000000     % of that
 The run will finish approximately on (in local time): Thu May 30, 2019 12:15

 Time step #        10000
 Time:    83.9899979      seconds
 Elapsed time in seconds =    203.83019089698792     
 Elapsed time in hh:mm:ss =      0 h 03 m 23 s
 Mean elapsed time per time step in seconds =    2.03830190E-02
 Max norm displacement vector U in all slices (m) =    48311.1406    
 Time steps done =        10000  out of        20000
 Time steps remaining =        10000
 Estimated remaining time in seconds =    203.830185    
 Estimated remaining time in hh:mm:ss =      0 h 03 m 23 s
 Estimated total run time in seconds =    407.660370    
 Estimated total run time in hh:mm:ss =      0 h 06 m 47 s
 We have done    50.0000000     % of that
 The run will finish approximately on (in local time): Thu May 30, 2019 12:14


 Total number of time steps written:        10000
 Writing the seismograms in parallel took    3.39505100      seconds

 Time step #        10500
 Time:    88.9899979      seconds
 Elapsed time in seconds =    213.79297399520874     
 Elapsed time in hh:mm:ss =      0 h 03 m 33 s
 Mean elapsed time per time step in seconds =    2.03612354E-02
 Max norm displacement vector U in all slices (m) =    48313.5156    
 Time steps done =        10500  out of        20000
 Time steps remaining =         9500
 Estimated remaining time in seconds =    193.431732    
 Estimated remaining time in hh:mm:ss =      0 h 03 m 13 s
 Estimated total run time in seconds =    407.224701    
 Estimated total run time in hh:mm:ss =      0 h 06 m 47 s
 We have done    52.5000000     % of that
 The run will finish approximately on (in local time): Thu May 30, 2019 12:14

 Time step #        11000
 Time:    93.9899979      seconds
 Elapsed time in seconds =    220.31659007072449     
 Elapsed time in hh:mm:ss =      0 h 03 m 40 s
 Mean elapsed time per time step in seconds =    2.00287811E-02
 Max norm displacement vector U in all slices (m) =    48315.3867    
 Time steps done =        11000  out of        20000
 Time steps remaining =         9000
 Estimated remaining time in seconds =    180.259033    
 Estimated remaining time in hh:mm:ss =      0 h 03 m 00 s
 Estimated total run time in seconds =    400.575623    
 Estimated total run time in hh:mm:ss =      0 h 06 m 40 s
 We have done    55.0000000     % of that
 The run will finish approximately on (in local time): Thu May 30, 2019 12:14

 Time step #        11500
 Time:    98.9899979      seconds
 Elapsed time in seconds =    226.89379906654358     
 Elapsed time in hh:mm:ss =      0 h 03 m 46 s
 Mean elapsed time per time step in seconds =    1.97298955E-02
 Max norm displacement vector U in all slices (m) =    48316.1016    
 Time steps done =        11500  out of        20000
 Time steps remaining =         8500
 Estimated remaining time in seconds =    167.704117    
 Estimated remaining time in hh:mm:ss =      0 h 02 m 47 s
 Estimated total run time in seconds =    394.597900    
 Estimated total run time in hh:mm:ss =      0 h 06 m 34 s
 We have done    57.5000000     % of that
 The run will finish approximately on (in local time): Thu May 30, 2019 12:14

 Time step #        12000
 Time:    103.989998      seconds
 Elapsed time in seconds =    233.52234506607056     
 Elapsed time in hh:mm:ss =      0 h 03 m 53 s
 Mean elapsed time per time step in seconds =    1.94601957E-02
 Max norm displacement vector U in all slices (m) =    48316.8242    
 Time steps done =        12000  out of        20000
 Time steps remaining =         8000
 Estimated remaining time in seconds =    155.681564    
 Estimated remaining time in hh:mm:ss =      0 h 02 m 35 s
 Estimated total run time in seconds =    389.203918    
 Estimated total run time in hh:mm:ss =      0 h 06 m 29 s
 We have done    60.0000000     % of that
 The run will finish approximately on (in local time): Thu May 30, 2019 12:14

 Time step #        12500
 Time:    108.989998      seconds
 Elapsed time in seconds =    244.99114394187927     
 Elapsed time in hh:mm:ss =      0 h 04 m 04 s
 Mean elapsed time per time step in seconds =    1.95992924E-02
 Max norm displacement vector U in all slices (m) =    48317.3320    
 Time steps done =        12500  out of        20000
 Time steps remaining =         7500
 Estimated remaining time in seconds =    146.994690    
 Estimated remaining time in hh:mm:ss =      0 h 02 m 26 s
 Estimated total run time in seconds =    391.985840    
 Estimated total run time in hh:mm:ss =      0 h 06 m 31 s
 We have done    62.5000000     % of that
 The run will finish approximately on (in local time): Thu May 30, 2019 12:14

 Time step #        13000
 Time:    113.989998      seconds
 Elapsed time in seconds =    270.57191300392151     
 Elapsed time in hh:mm:ss =      0 h 04 m 30 s
 Mean elapsed time per time step in seconds =    2.08132248E-02
 Max norm displacement vector U in all slices (m) =    48317.6953    
 Time steps done =        13000  out of        20000
 Time steps remaining =         7000
 Estimated remaining time in seconds =    145.692566    
 Estimated remaining time in hh:mm:ss =      0 h 02 m 25 s
 Estimated total run time in seconds =    416.264496    
 Estimated total run time in hh:mm:ss =      0 h 06 m 56 s
 We have done    65.0000000     % of that
 The run will finish approximately on (in local time): Thu May 30, 2019 12:14

 Time step #        13500
 Time:    118.989998      seconds
 Elapsed time in seconds =    296.91130805015564     
 Elapsed time in hh:mm:ss =      0 h 04 m 56 s
 Mean elapsed time per time step in seconds =    2.19934303E-02
 Max norm displacement vector U in all slices (m) =    48318.5156    
 Time steps done =        13500  out of        20000
 Time steps remaining =         6500
 Estimated remaining time in seconds =    142.957291    
 Estimated remaining time in hh:mm:ss =      0 h 02 m 22 s
 Estimated total run time in seconds =    439.868591    
 Estimated total run time in hh:mm:ss =      0 h 07 m 19 s
 We have done    67.5000000     % of that
 The run will finish approximately on (in local time): Thu May 30, 2019 12:15

 Time step #        14000
 Time:    123.989998      seconds
 Elapsed time in seconds =    323.38731908798218     
 Elapsed time in hh:mm:ss =      0 h 05 m 23 s
 Mean elapsed time per time step in seconds =    2.30990946E-02
 Max norm displacement vector U in all slices (m) =    48318.6328    
 Time steps done =        14000  out of        20000
 Time steps remaining =         6000
 Estimated remaining time in seconds =    138.594559    
 Estimated remaining time in hh:mm:ss =      0 h 02 m 18 s
 Estimated total run time in seconds =    461.981873    
 Estimated total run time in hh:mm:ss =      0 h 07 m 41 s
 We have done    70.0000000     % of that
 The run will finish approximately on (in local time): Thu May 30, 2019 12:15

 Time step #        14500
 Time:    128.990005      seconds
 Elapsed time in seconds =    350.02041196823120     
 Elapsed time in hh:mm:ss =      0 h 05 m 50 s
 Mean elapsed time per time step in seconds =    2.41393391E-02
 Max norm displacement vector U in all slices (m) =    48319.2383    
 Time steps done =        14500  out of        20000
 Time steps remaining =         5500
 Estimated remaining time in seconds =    132.766357    
 Estimated remaining time in hh:mm:ss =      0 h 02 m 12 s
 Estimated total run time in seconds =    482.786774    
 Estimated total run time in hh:mm:ss =      0 h 08 m 02 s
 We have done    72.5000000     % of that
 The run will finish approximately on (in local time): Thu May 30, 2019 12:15

 Time step #        15000
 Time:    133.990005      seconds
 Elapsed time in seconds =    375.87660408020020     
 Elapsed time in hh:mm:ss =      0 h 06 m 15 s
 Mean elapsed time per time step in seconds =    2.50584409E-02
 Max norm displacement vector U in all slices (m) =    48321.2969    
 Time steps done =        15000  out of        20000
 Time steps remaining =         5000
 Estimated remaining time in seconds =    125.292198    
 Estimated remaining time in hh:mm:ss =      0 h 02 m 05 s
 Estimated total run time in seconds =    501.168793    
 Estimated total run time in hh:mm:ss =      0 h 08 m 21 s
 We have done    75.0000000     % of that
 The run will finish approximately on (in local time): Thu May 30, 2019 12:16


 Total number of time steps written:        15000
 Writing the seismograms in parallel took    6.78654289      seconds

 Time step #        15500
 Time:    138.990005      seconds
 Elapsed time in seconds =    410.06723189353943     
 Elapsed time in hh:mm:ss =      0 h 06 m 50 s
 Mean elapsed time per time step in seconds =    2.64559500E-02
 Max norm displacement vector U in all slices (m) =    48323.8711    
 Time steps done =        15500  out of        20000
 Time steps remaining =         4500
 Estimated remaining time in seconds =    119.051781    
 Estimated remaining time in hh:mm:ss =      0 h 01 m 59 s
 Estimated total run time in seconds =    529.119019    
 Estimated total run time in hh:mm:ss =      0 h 08 m 49 s
 We have done    77.5000000     % of that
 The run will finish approximately on (in local time): Thu May 30, 2019 12:16

 Time step #        16000
 Time:    143.990005      seconds
 Elapsed time in seconds =    436.99933099746704     
 Elapsed time in hh:mm:ss =      0 h 07 m 16 s
 Mean elapsed time per time step in seconds =    2.73124576E-02
 Max norm displacement vector U in all slices (m) =    48326.6680    
 Time steps done =        16000  out of        20000
 Time steps remaining =         4000
 Estimated remaining time in seconds =    109.249832    
 Estimated remaining time in hh:mm:ss =      0 h 01 m 49 s
 Estimated total run time in seconds =    546.249146    
 Estimated total run time in hh:mm:ss =      0 h 09 m 06 s
 We have done    80.0000000     % of that
 The run will finish approximately on (in local time): Thu May 30, 2019 12:17

 Time step #        16500
 Time:    148.990005      seconds
 Elapsed time in seconds =    464.37725090980530     
 Elapsed time in hh:mm:ss =      0 h 07 m 44 s
 Mean elapsed time per time step in seconds =    2.81440765E-02
 Max norm displacement vector U in all slices (m) =    48329.6797    
 Time steps done =        16500  out of        20000
 Time steps remaining =         3500
 Estimated remaining time in seconds =    98.5042648    
 Estimated remaining time in hh:mm:ss =      0 h 01 m 38 s
 Estimated total run time in seconds =    562.881531    
 Estimated total run time in hh:mm:ss =      0 h 09 m 22 s
 We have done    82.5000000     % of that
 The run will finish approximately on (in local time): Thu May 30, 2019 12:17

 Time step #        17000
 Time:    153.990005      seconds
 Elapsed time in seconds =    490.38457107543945     
 Elapsed time in hh:mm:ss =      0 h 08 m 10 s
 Mean elapsed time per time step in seconds =    2.88461521E-02
 Max norm displacement vector U in all slices (m) =    48332.5430    
 Time steps done =        17000  out of        20000
 Time steps remaining =         3000
 Estimated remaining time in seconds =    86.5384521    
 Estimated remaining time in hh:mm:ss =      0 h 01 m 26 s
 Estimated total run time in seconds =    576.923035    
 Estimated total run time in hh:mm:ss =      0 h 09 m 36 s
 We have done    85.0000000     % of that
 The run will finish approximately on (in local time): Thu May 30, 2019 12:17

 Time step #        17500
 Time:    158.990005      seconds
 Elapsed time in seconds =    516.29654598236084     
 Elapsed time in hh:mm:ss =      0 h 08 m 36 s
 Mean elapsed time per time step in seconds =    2.95026600E-02
 Max norm displacement vector U in all slices (m) =    48335.0781    
 Time steps done =        17500  out of        20000
 Time steps remaining =         2500
 Estimated remaining time in seconds =    73.7566528    
 Estimated remaining time in hh:mm:ss =      0 h 01 m 13 s
 Estimated total run time in seconds =    590.053223    
 Estimated total run time in hh:mm:ss =      0 h 09 m 50 s
 We have done    87.5000000     % of that
 The run will finish approximately on (in local time): Thu May 30, 2019 12:17

 Time step #        18000
 Time:    163.990005      seconds
 Elapsed time in seconds =    543.66733288764954     
 Elapsed time in hh:mm:ss =      0 h 09 m 03 s
 Mean elapsed time per time step in seconds =    3.02037410E-02
 Max norm displacement vector U in all slices (m) =    48338.0156    
 Time steps done =        18000  out of        20000
 Time steps remaining =         2000
 Estimated remaining time in seconds =    60.4074821    
 Estimated remaining time in hh:mm:ss =      0 h 01 m 00 s
 Estimated total run time in seconds =    604.074829    
 Estimated total run time in hh:mm:ss =      0 h 10 m 04 s
 We have done    90.0000000     % of that
 The run will finish approximately on (in local time): Thu May 30, 2019 12:18

 Time step #        18500
 Time:    168.990005      seconds
 Elapsed time in seconds =    569.93097901344299     
 Elapsed time in hh:mm:ss =      0 h 09 m 29 s
 Mean elapsed time per time step in seconds =    3.08070797E-02
 Max norm displacement vector U in all slices (m) =    48340.9219    
 Time steps done =        18500  out of        20000
 Time steps remaining =         1500
 Estimated remaining time in seconds =    46.2106209    
 Estimated remaining time in hh:mm:ss =      0 h 00 m 46 s
 Estimated total run time in seconds =    616.141602    
 Estimated total run time in hh:mm:ss =      0 h 10 m 16 s
 We have done    92.5000000     % of that
 The run will finish approximately on (in local time): Thu May 30, 2019 12:18

 Time step #        19000
 Time:    173.990005      seconds
 Elapsed time in seconds =    595.75934910774231     
 Elapsed time in hh:mm:ss =      0 h 09 m 55 s
 Mean elapsed time per time step in seconds =    3.13557535E-02
 Max norm displacement vector U in all slices (m) =    48343.3320    
 Time steps done =        19000  out of        20000
 Time steps remaining =         1000
 Estimated remaining time in seconds =    31.3557549    
 Estimated remaining time in hh:mm:ss =      0 h 00 m 31 s
 Estimated total run time in seconds =    627.115112    
 Estimated total run time in hh:mm:ss =      0 h 10 m 27 s
 We have done    95.0000000     % of that
 The run will finish approximately on (in local time): Thu May 30, 2019 12:18

 Time step #        19500
 Time:    178.990005      seconds
 Elapsed time in seconds =    621.81263089179993     
 Elapsed time in hh:mm:ss =      0 h 10 m 21 s
 Mean elapsed time per time step in seconds =    3.18878256E-02
 Max norm displacement vector U in all slices (m) =    48345.7695    
 Time steps done =        19500  out of        20000
 Time steps remaining =          500
 Estimated remaining time in seconds =    15.9439135    
 Estimated remaining time in hh:mm:ss =      0 h 00 m 15 s
 Estimated total run time in seconds =    637.756531    
 Estimated total run time in hh:mm:ss =      0 h 10 m 37 s
 We have done    97.5000000     % of that
 The run will finish approximately on (in local time): Thu May 30, 2019 12:18

 Time step #        20000
 Time:    183.990005      seconds
 Elapsed time in seconds =    647.21961903572083     
 Elapsed time in hh:mm:ss =      0 h 10 m 47 s
 Mean elapsed time per time step in seconds =    3.23609821E-02
 Max norm displacement vector U in all slices (m) =    48348.2812    
 Time steps done =        20000  out of        20000
 Time steps remaining =            0
 Estimated remaining time in seconds =    0.00000000    
 Estimated remaining time in hh:mm:ss =      0 h 00 m 00 s
 Estimated total run time in seconds =    647.219604    
 Estimated total run time in hh:mm:ss =      0 h 10 m 47 s
 We have done    100.000000     % of that


 Total number of time steps written:        20000
 Writing the seismograms in parallel took    6.81238604      seconds

 Time-Loop Complete. Timing info:
 Total elapsed time in seconds =    654.10762190818787     
 Total elapsed time in hh:mm:ss =      0 h 10 m 54 s

 End of the simulation

