
 **********************************************
 **** Specfem 3-D Solver - MPI version f90 ****
 **********************************************

 Running Git package version of the code: v2.0.2-2900-g4603960
 which is Git commit 460396065c39efc958166098ef7eb3fd5d2267f3
 dating From Date:   Mon Jun 3 10:22:48 2019 -0600


 There are           16  MPI processes
 Processes are numbered from 0 to           15

 There is a total of           16  slices

  NDIM =            3

  NGLLX =            5
  NGLLY =            5
  NGLLZ =            5

 using single precision for the calculations

 smallest and largest possible floating-point numbers are:    1.17549435E-38   3.40282347E+38

 velocity model:   default 

 total acoustic elements    :        9216
 total elastic elements     :        4032
 total poroelastic elements :           0

 ********
 minimum and maximum number of elements
 and points in the CUBIT + SCOTCH mesh:

 NSPEC_global_min =          828
 NSPEC_global_max =          828
 NSPEC_global_max / NSPEC_global_min imbalance =    1.00000000      =    0.00000000      %
 NSPEC_global_sum =        13248

 NGLOB_global_min =        58125
 NGLOB_global_max =        58125
 NGLOB_global_max / NGLOB_global_min imbalance =    1.00000000      =    0.00000000      %
 NGLOB_global_sum =       930000

 If you have elements of a single type (all acoustic, all elastic, all poroelastic, and without CPML)
 in the whole mesh, then there should be no significant imbalance in the above numbers.
 Otherwise, it is normal to have imbalance in elements and points because the domain decomposer
 compensates for the different cost of different elements by partitioning them unevenly among processes.
 ********


 ********
 Model: P velocity min,max =    330.000031       7500.00000    
 Model: S velocity min,max =    0.00000000       4300.00000    

 Model: Poisson's ratio min,max =   0.255164206      0.500000000    
 ********

 *********************************************
 *** Verification of simulation parameters ***
 *********************************************

 *** Xmin and Xmax of the model =    370768.812       421052.906    
 *** Ymin and Ymax of the model =    8302064.00       8352066.00    
 *** Zmin and Zmax of the model =   -16000.0000       30000.0000    

 *** Max GLL point distance =    685.812500    
 *** Min GLL point distance =    345.345703    
 *** Max/min ratio =    1.98587239    

 *** Max element size =    2095.18750    
 *** Min element size =    2000.00000    
 *** Max/min ratio =    1.04759371    

 *** Minimum period resolved =    7.93631554    
 *** Maximum suggested time step =    2.30230801E-02

 *** for DT :    1.0000000000000000E-002
 *** Max stability for wave velocities =   0.217173383    

 Elapsed time for checking mesh resolution in seconds =    3.7059783935546875E-003
 saving VTK files for Courant number and minimum period

 ******************************************
 There is a total of           16  slices
 ******************************************

 mesh surfaces:
   high-resolution  =  F
   nfaces per slice =           36         210          36          36         192         380         191         191          54         246          54          54          36         209          36          36

   total number of surface faces is         1997

   used on cross-sections

 surface movies:
   saving: particle velocities
   number of steps between frames =          200


 kd-tree:
   total data points:          828
   theoretical   number of nodes:         1650
                tree memory size:    5.03540039E-02 MB
   actual        number of nodes:         1655
                tree memory size:    5.05065918E-02 MB
   maximum depth   :           11
   creation timing :    0.00000000     (s)


 sources:           1

 ********************
  locating sources
 ********************

 reading source information from ./DATA/CMTSOLUTION file

 UTM projection:
   UTM zone:           -2

 source #            1
   source located in slice            9
                  in element           78
                  in elastic domain

   using moment tensor source: 
     xi coordinate of source in that element:   0.87194496909110175     
     eta coordinate of source in that element:  -0.98588279467357687     
     gamma coordinate of source in that element:   -1.0000000000000018     

   source time function:
     using Gaussian source time function
     half duration:    8.0000000000000000       seconds
     time shift:    0.0000000000000000       seconds

   magnitude of the source:
        scalar moment M0 =    1.6844703915474442E+028  dyne-cm
     moment magnitude Mw =    8.1176424451728337     

   original (requested) position of the source:

             latitude:   -15.130000000000001     
            longitude:   -171.97000000000000     

            UTM x:    395776.69610082358     
            UTM y:    8327079.7065986479     
           depth:    12.000000000000000       km

   position of the source that will be used:

            UTM x:    395776.69610082358     
            UTM y:    8327079.7065986479     
            depth:    11.999999999999998       km
                z:   -11999.999999999998     

   error in location of the source:    9.31324351E-10  m



 maximum error in location of the sources:    9.31324351E-10  m


 Elapsed time for detection of sources in seconds =   0.12731289863586426     

 End of source detection - done


 Each source is being convolved with HDUR_MOVIE =    0.0000000000000000     


 printing the source-time function

 receivers:

 there are           66  stations in file ./DATA/STATIONS
 saving           55  stations inside the model in file ./DATA/STATIONS_FILTERED
 excluding           11  stations located outside the model


 Total number of receivers =           55


 ********************
  locating receivers
 ********************

 reading receiver information from ./DATA/STATIONS_FILTERED file


 station #            1     DB    S01
      original latitude:   -15.1300001    
      original longitude:   -171.970001    
      original UTM x:    395776.688    
      original UTM y:    8327079.50    
      original depth:   -0.00000000      m
      horizontal distance km:    9.31322619E-13
      target x, y, z:    395776.688       8327079.50       0.00000000    
      closest estimate found:    5.82076609E-11  m away

      receiver located in slice            9
                       in element          258
                       in acoustic domain
      at coordinates: 
      xi    =   0.87194496909104624     
      eta   =  -0.98588279467536477     
      gamma =   0.99999999999999833     
      rotation matrix: 
      nu1 =    1.00000000       0.00000000       0.00000000    
      nu2 =    0.00000000       1.00000000       0.00000000    
      nu3 =    0.00000000       0.00000000       1.00000000    
      UTM x:    395776.69610082352     
      UTM y:    8327079.7065986469     
      depth:    1.2332530353770676E-014  m
      z:    1.2332530353770676E-014



 station #            2     DB    S02
      original latitude:   -15.1225004    
      original longitude:   -171.988998    
      original UTM x:    393731.281    
      original UTM y:    8327900.00    
      original depth:   -0.00000000      m
      horizontal distance km:    2.20384574    
      target x, y, z:    393731.281       8327900.00       0.00000000    
      closest estimate found:    1.01965360E-14  m away

      receiver located in slice            9
                       in element          257
                       in acoustic domain
      at coordinates: 
      xi    =   0.91944321402576745     
      eta   =  -0.19823254902252826     
      gamma =    1.0000000000000007     
      rotation matrix: 
      nu1 =    1.00000000       0.00000000       0.00000000    
      nu2 =    0.00000000       1.00000000       0.00000000    
      nu3 =    0.00000000       0.00000000       1.00000000    
      UTM x:    393731.29671449331     
      UTM y:    8327900.2412420558     
      depth:    1.0196536092517268E-014  m
      z:    1.0196536092517268E-014



 station #            3     DB    S03
      original latitude:   -15.1148996    
      original longitude:   -172.007996    
      original UTM x:    391685.688    
      original UTM y:    8328731.50    
      original depth:   -0.00000000      m
      horizontal distance km:    4.41194677    
      target x, y, z:    391685.688       8328731.50       0.00000000    
      closest estimate found:    5.82076679E-11  m away

      receiver located in slice            9
                       in element          256
                       in acoustic domain
      at coordinates: 
      xi    =   0.96677535874717002     
      eta   =   0.59987411689389603     
      gamma =   0.99999999999999967     
      rotation matrix: 
      nu1 =    1.00000000       0.00000000       0.00000000    
      nu2 =    0.00000000       1.00000000       0.00000000    
      nu3 =    0.00000000       0.00000000       1.00000000    
      UTM x:    391685.69459261250     
      UTM y:    8328731.6688612737     
      depth:    2.4800034357229173E-014  m
      z:    2.4800034357229173E-014



 station #            4     DB    S04
      original latitude:   -15.1073999    
      original longitude:   -172.028000    
      original UTM x:    389532.531    
      original UTM y:    8329551.50    
      original depth:   -0.00000000      m
      horizontal distance km:    6.71556425    
      target x, y, z:    389532.531       8329551.50       0.00000000    
      closest estimate found:    0.00000000      m away

      receiver located in slice            9
                       in element          261
                       in acoustic domain
      at coordinates: 
      xi    =   0.91139485719382884     
      eta   =  -0.61318923457845476     
      gamma =    1.0000000000000000     
      rotation matrix: 
      nu1 =    1.00000000       0.00000000       0.00000000    
      nu2 =    0.00000000       1.00000000       0.00000000    
      nu3 =    0.00000000       0.00000000       1.00000000    
      UTM x:    389532.52155617840     
      UTM y:    8329551.3634121865     
      depth:    0.0000000000000000       m
      z:    0.0000000000000000     



 station #            5     DB    S05
      original latitude:   -15.0998001    
      original longitude:   -172.046997    
      original UTM x:    387486.594    
      original UTM y:    8330382.50    
      original depth:   -0.00000000      m
      horizontal distance km:    8.92376804    
      target x, y, z:    387486.594       8330382.50       0.00000000    
      closest estimate found:    9.31322575E-10  m away

      receiver located in slice            9
                       in element          260
                       in acoustic domain
      at coordinates: 
      xi    =   0.95842958874797668     
      eta   =   0.18477657815755358     
      gamma =    1.0000000000000000     
      rotation matrix: 
      nu1 =    1.00000000       0.00000000       0.00000000    
      nu2 =    0.00000000       1.00000000       0.00000000    
      nu3 =    0.00000000       0.00000000       1.00000000    
      UTM x:    387486.60799652513     
      UTM y:    8330382.4448061520     
      depth:    1.5411011603770107E-014  m
      z:    1.5411011603770107E-014



 station #            6     DB    S06
      original latitude:   -15.0923004    
      original longitude:   -172.065994    
      original UTM x:    385440.594    
      original UTM y:    8331202.50    
      original depth:   -0.00000000      m
      horizontal distance km:    11.1279268    
      target x, y, z:    385440.594       8331202.50       0.00000000    
      closest estimate found:    2.54345546E-14  m away

      receiver located in slice            9
                       in element          260
                       in acoustic domain
      at coordinates: 
      xi    =  -0.99466016874683005     
      eta   =   0.97195954592491618     
      gamma =    1.0000000000000000     
      rotation matrix: 
      nu1 =    1.00000000       0.00000000       0.00000000    
      nu2 =    0.00000000       1.00000000       0.00000000    
      nu3 =    0.00000000       0.00000000       1.00000000    
      UTM x:    385440.59389041201     
      UTM y:    8331202.2958670808     
      depth:    2.5434554507748740E-014  m
      z:    2.5434554507748740E-014



 station #            7     DB    S07
      original latitude:   -15.0846996    
      original longitude:   -172.085007    
      original UTM x:    383394.375    
      original UTM y:    8332033.00    
      original depth:   -0.00000000      m
      horizontal distance km:    13.3363209    
      target x, y, z:    383394.375       8332033.00       0.00000000    
      closest estimate found:    1.54247817E-14  m away

      receiver located in slice            9
                       in element          265
                       in acoustic domain
      at coordinates: 
      xi    =  -0.94791837734939055     
      eta   =  -0.23058213207281578     
      gamma =   0.99999999999999933     
      rotation matrix: 
      nu1 =    1.00000000       0.00000000       0.00000000    
      nu2 =    0.00000000       1.00000000       0.00000000    
      nu3 =    0.00000000       0.00000000       1.00000000    
      UTM x:    383394.37288237864     
      UTM y:    8332033.0410639131     
      depth:    1.5424782212152398E-014  m
      z:    1.5424782212152398E-014



 station #            8     DB    S08
      original latitude:   -15.0771999    
      original longitude:   -172.104004    
      original UTM x:    381348.062    
      original UTM y:    8332852.50    
      original depth:   -0.00000000      m
      horizontal distance km:    15.5406418    
      target x, y, z:    381348.062       8332852.50       0.00000000    
      closest estimate found:    5.43231333E-14  m away

      receiver located in slice            8
                       in element          306
                       in acoustic domain
      at coordinates: 
      xi    =  -0.90129925109125464     
      eta   =   0.55608955846273811     
      gamma =  -0.99999999999999878     
      rotation matrix: 
      nu1 =    1.00000000       0.00000000       0.00000000    
      nu2 =    0.00000000       1.00000000       0.00000000    
      nu3 =    0.00000000       0.00000000       1.00000000    
      UTM x:    381348.05299547792     
      UTM y:    8332852.5562975276     
      depth:    5.4323132802333974E-014  m
      z:   -5.4323132802333974E-014



 station #            9     DB    S09
      original latitude:   -15.0696001    
      original longitude:   -172.123001    
      original UTM x:    379301.531    
      original UTM y:    8333683.00    
      original depth:   -0.00000000      m
      horizontal distance km:    17.7492065    
      target x, y, z:    379301.531       8333683.00       0.00000000    
      closest estimate found:    2.56403328E-14  m away

      receiver located in slice            8
                       in element          311
                       in acoustic domain
      at coordinates: 
      xi    =  -0.85485269687241938     
      eta   =  -0.64678065950743346     
      gamma =  -0.99999999999999989     
      rotation matrix: 
      nu1 =    1.00000000       0.00000000       0.00000000    
      nu2 =    0.00000000       1.00000000       0.00000000    
      nu3 =    0.00000000       0.00000000       1.00000000    
      UTM x:    379301.52415758581     
      UTM y:    8333682.9662479591     
      depth:    2.5640332803430326E-014  m
      z:    2.5640332803430326E-014



 station #           10     DB    S10
      original latitude:   -15.0621004    
      original longitude:   -172.143005    
      original UTM x:    377147.406    
      original UTM y:    8334501.50    
      original depth:   -0.00000000      m
      horizontal distance km:    20.0533009    
      target x, y, z:    377147.406       8334501.50       0.00000000    
      closest estimate found:    9.31322575E-10  m away

      receiver located in slice            8
                       in element          274
                       in acoustic domain
      at coordinates: 
      xi    =  -0.91113730405492532     
      eta   =   0.13903480229391049     
      gamma =    1.0000000000000000     
      rotation matrix: 
      nu1 =    1.00000000       0.00000000       0.00000000    
      nu2 =    0.00000000       1.00000000       0.00000000    
      nu3 =    0.00000000       0.00000000       1.00000000    
      UTM x:    377147.40311640059     
      UTM y:    8334501.5895052906     
      depth:    0.0000000000000000       m
      z:    0.0000000000000000     



 station #           11     DB    S11
      original latitude:   -15.0544996    
      original longitude:   -172.162003    
      original UTM x:    375100.562    
      original UTM y:    8335331.50    
      original depth:   -0.00000000      m
      horizontal distance km:    22.2620125    
      target x, y, z:    375100.562       8335331.50       0.00000000    
      closest estimate found:    0.00000000      m away

      receiver located in slice            8
                       in element          273
                       in acoustic domain
      at coordinates: 
      xi    =  -0.86498905075888177     
      eta   =   0.93583503584009808     
      gamma =    1.0000000000000000     
      rotation matrix: 
      nu1 =    1.00000000       0.00000000       0.00000000    
      nu2 =    0.00000000       1.00000000       0.00000000    
      nu3 =    0.00000000       0.00000000       1.00000000    
      UTM x:    375100.56162660656     
      UTM y:    8335331.6561485864     
      depth:    0.0000000000000000       m
      z:    0.0000000000000000     



 station #           12     DB    S12
      original latitude:   -15.0469999    
      original longitude:   -172.181000    
      original UTM x:    373053.625    
      original UTM y:    8336150.50    
      original depth:   -0.00000000      m
      horizontal distance km:    24.4666538    
      target x, y, z:    373053.625       8336150.50       0.00000000    
      closest estimate found:    9.33139788E-10  m away

      receiver located in slice            8
                       in element          278
                       in acoustic domain
      at coordinates: 
      xi    =  -0.81895777745997111     
      eta   =  -0.27814393092008527     
      gamma =    1.0000000000000011     
      rotation matrix: 
      nu1 =    1.00000000       0.00000000       0.00000000    
      nu2 =    0.00000000       1.00000000       0.00000000    
      nu3 =    0.00000000       0.00000000       1.00000000    
      UTM x:    373053.62462203426     
      UTM y:    8336150.4935599621     
      depth:    5.2985527026817068E-014  m
      z:    5.2985527026817068E-014



 station #           13     DB    S13
      original latitude:   -15.0394001    
      original longitude:   -172.199997    
      original UTM x:    371006.469    
      original UTM y:    8336980.00    
      original depth:   -0.00000000      m
      horizontal distance km:    26.6755352    
      target x, y, z:    371006.469       8336980.00       0.00000000    
      closest estimate found:    9.33139788E-10  m away

      receiver located in slice            8
                       in element          277
                       in acoustic domain
      at coordinates: 
      xi    =  -0.77313193834135163     
      eta   =   0.51833633259294576     
      gamma =    1.0000000000000000     
      rotation matrix: 
      nu1 =    1.00000000       0.00000000       0.00000000    
      nu2 =    0.00000000       1.00000000       0.00000000    
      nu3 =    0.00000000       0.00000000       1.00000000    
      UTM x:    371006.47451865475     
      UTM y:    8336980.2268744782     
      depth:    4.9692108676042278E-014  m
      z:   -4.9692108676042278E-014



 station #           14     DB    L01
      original latitude:   -15.1300001    
      original longitude:   -171.970001    
      original UTM x:    395776.688    
      original UTM y:    8327079.50    
      original depth:   -10000.0000      m
      horizontal distance km:    9.31322619E-13
      target x, y, z:    395776.688       8327079.50       10000.0000    
      closest estimate found:    9.38572109E-10  m away

      receiver located in slice            9
                       in element          438
                       in acoustic domain
      at coordinates: 
      xi    =   0.87194496909110175     
      eta   =  -0.98588279467536477     
      gamma =   0.99999999999999811     
      rotation matrix: 
      nu1 =    1.00000000       0.00000000       0.00000000    
      nu2 =    0.00000000       1.00000000       0.00000000    
      nu3 =    0.00000000       0.00000000       1.00000000    
      UTM x:    395776.69610082370     
      UTM y:    8327079.7065986479     
      depth:    9999.9999999999982       m
      z:    9999.9999999999982     



 station #           15     DB    L02
      original latitude:   -15.1225004    
      original longitude:   -171.988998    
      original UTM x:    393731.281    
      original UTM y:    8327900.00    
      original depth:   -10000.0000      m
      horizontal distance km:    2.20384574    
      target x, y, z:    393731.281       8327900.00       10000.0000    
      closest estimate found:    0.00000000      m away

      receiver located in slice            9
                       in element          437
                       in acoustic domain
      at coordinates: 
      xi    =   0.91944321402576745     
      eta   =  -0.19823254902252826     
      gamma =    1.0000000000000000     
      rotation matrix: 
      nu1 =    1.00000000       0.00000000       0.00000000    
      nu2 =    0.00000000       1.00000000       0.00000000    
      nu3 =    0.00000000       0.00000000       1.00000000    
      UTM x:    393731.29671449331     
      UTM y:    8327900.2412420558     
      depth:    10000.000000000000       m
      z:    10000.000000000000     



 station #           16     DB    L03
      original latitude:   -15.1148996    
      original longitude:   -172.007996    
      original UTM x:    391685.688    
      original UTM y:    8328731.50    
      original depth:   -10000.0000      m
      horizontal distance km:    4.41194677    
      target x, y, z:    391685.688       8328731.50       10000.0000    
      closest estimate found:    5.82076609E-11  m away

      receiver located in slice            9
                       in element          436
                       in acoustic domain
      at coordinates: 
      xi    =   0.96677535874711451     
      eta   =   0.59987411689300207     
      gamma =    1.0000000000000000     
      rotation matrix: 
      nu1 =    1.00000000       0.00000000       0.00000000    
      nu2 =    0.00000000       1.00000000       0.00000000    
      nu3 =    0.00000000       0.00000000       1.00000000    
      UTM x:    391685.69459261250     
      UTM y:    8328731.6688612737     
      depth:    10000.000000000000       m
      z:    10000.000000000000     



 station #           17     DB    L04
      original latitude:   -15.1073999    
      original longitude:   -172.028000    
      original UTM x:    389532.531    
      original UTM y:    8329551.50    
      original depth:   -10000.0000      m
      horizontal distance km:    6.71556425    
      target x, y, z:    389532.531       8329551.50       10000.0000    
      closest estimate found:    0.00000000      m away

      receiver located in slice            9
                       in element          441
                       in acoustic domain
      at coordinates: 
      xi    =   0.91139485719382884     
      eta   =  -0.61318923457845476     
      gamma =    1.0000000000000000     
      rotation matrix: 
      nu1 =    1.00000000       0.00000000       0.00000000    
      nu2 =    0.00000000       1.00000000       0.00000000    
      nu3 =    0.00000000       0.00000000       1.00000000    
      UTM x:    389532.52155617840     
      UTM y:    8329551.3634121865     
      depth:    10000.000000000000       m
      z:    10000.000000000000     



 station #           18     DB    L05
      original latitude:   -15.0998001    
      original longitude:   -172.046997    
      original UTM x:    387486.594    
      original UTM y:    8330382.50    
      original depth:   -10000.0000      m
      horizontal distance km:    8.92376804    
      target x, y, z:    387486.594       8330382.50       10000.0000    
      closest estimate found:    1.16415322E-10  m away

      receiver located in slice            9
                       in element          476
                       in acoustic domain
      at coordinates: 
      xi    =   0.95842958874792117     
      eta   =   0.18477657815755358     
      gamma =   -1.0000000000000018     
      rotation matrix: 
      nu1 =    1.00000000       0.00000000       0.00000000    
      nu2 =    0.00000000       1.00000000       0.00000000    
      nu3 =    0.00000000       0.00000000       1.00000000    
      UTM x:    387486.60799652524     
      UTM y:    8330382.4448061511     
      depth:    10000.000000000000       m
      z:    10000.000000000000     



 station #           19     DB    L06
      original latitude:   -15.0923004    
      original longitude:   -172.065994    
      original UTM x:    385440.594    
      original UTM y:    8331202.50    
      original depth:   -10000.0000      m
      horizontal distance km:    11.1279268    
      target x, y, z:    385440.594       8331202.50       10000.0000    
      closest estimate found:    0.00000000      m away

      receiver located in slice            9
                       in element          440
                       in acoustic domain
      at coordinates: 
      xi    =  -0.99466016874683005     
      eta   =   0.97195954592491618     
      gamma =    1.0000000000000000     
      rotation matrix: 
      nu1 =    1.00000000       0.00000000       0.00000000    
      nu2 =    0.00000000       1.00000000       0.00000000    
      nu3 =    0.00000000       0.00000000       1.00000000    
      UTM x:    385440.59389041201     
      UTM y:    8331202.2958670808     
      depth:    10000.000000000000       m
      z:    10000.000000000000     



 station #           20     DB    L07
      original latitude:   -15.0846996    
      original longitude:   -172.085007    
      original UTM x:    383394.375    
      original UTM y:    8332033.00    
      original depth:   -10000.0000      m
      horizontal distance km:    13.3363209    
      target x, y, z:    383394.375       8332033.00       10000.0000    
      closest estimate found:    0.00000000      m away

      receiver located in slice            9
                       in element          445
                       in acoustic domain
      at coordinates: 
      xi    =  -0.94791837734939055     
      eta   =  -0.23058213207281578     
      gamma =    1.0000000000000000     
      rotation matrix: 
      nu1 =    1.00000000       0.00000000       0.00000000    
      nu2 =    0.00000000       1.00000000       0.00000000    
      nu3 =    0.00000000       0.00000000       1.00000000    
      UTM x:    383394.37288237864     
      UTM y:    8332033.0410639131     
      depth:    10000.000000000000       m
      z:    10000.000000000000     



 station #           21     DB    L08
      original latitude:   -15.0771999    
      original longitude:   -172.104004    
      original UTM x:    381348.062    
      original UTM y:    8332852.50    
      original depth:   -10000.0000      m
      horizontal distance km:    15.5406418    
      target x, y, z:    381348.062       8332852.50       10000.0000    
      closest estimate found:    0.00000000      m away

      receiver located in slice            8
                       in element          450
                       in acoustic domain
      at coordinates: 
      xi    =  -0.90129925109125442     
      eta   =   0.55608955846146857     
      gamma =    1.0000000000000000     
      rotation matrix: 
      nu1 =    1.00000000       0.00000000       0.00000000    
      nu2 =    0.00000000       1.00000000       0.00000000    
      nu3 =    0.00000000       0.00000000       1.00000000    
      UTM x:    381348.05299547792     
      UTM y:    8332852.5562975276     
      depth:    10000.000000000000       m
      z:    10000.000000000000     



 station #           22     DB    L09
      original latitude:   -15.0696001    
      original longitude:   -172.123001    
      original UTM x:    379301.531    
      original UTM y:    8333683.00    
      original depth:   -10000.0000      m
      horizontal distance km:    17.7492065    
      target x, y, z:    379301.531       8333683.00       10000.0000    
      closest estimate found:    0.00000000      m away

      receiver located in slice            8
                       in element          455
                       in acoustic domain
      at coordinates: 
      xi    =  -0.85485269687247678     
      eta   =  -0.64678065950616404     
      gamma =    1.0000000000000000     
      rotation matrix: 
      nu1 =    1.00000000       0.00000000       0.00000000    
      nu2 =    0.00000000       1.00000000       0.00000000    
      nu3 =    0.00000000       0.00000000       1.00000000    
      UTM x:    379301.52415758581     
      UTM y:    8333682.9662479591     
      depth:    10000.000000000000       m
      z:    10000.000000000000     



 station #           23     DB    L10
      original latitude:   -15.0621004    
      original longitude:   -172.143005    
      original UTM x:    377147.406    
      original UTM y:    8334501.50    
      original depth:   -10000.0000      m
      horizontal distance km:    20.0533009    
      target x, y, z:    377147.406       8334501.50       10000.0000    
      closest estimate found:    5.82076609E-11  m away

      receiver located in slice            8
                       in element          490
                       in acoustic domain
      at coordinates: 
      xi    =  -0.91113730405492532     
      eta   =   0.13903480229301649     
      gamma =   -1.0000000000000018     
      rotation matrix: 
      nu1 =    1.00000000       0.00000000       0.00000000    
      nu2 =    0.00000000       1.00000000       0.00000000    
      nu3 =    0.00000000       0.00000000       1.00000000    
      UTM x:    377147.40311640064     
      UTM y:    8334501.5895052897     
      depth:    10000.000000000000       m
      z:    10000.000000000000     



 station #           24     DB    L11
      original latitude:   -15.0544996    
      original longitude:   -172.162003    
      original UTM x:    375100.562    
      original UTM y:    8335331.50    
      original depth:   -10000.0000      m
      horizontal distance km:    22.2620125    
      target x, y, z:    375100.562       8335331.50       10000.0000    
      closest estimate found:    0.00000000      m away

      receiver located in slice            8
                       in element          489
                       in acoustic domain
      at coordinates: 
      xi    =  -0.86498905075888177     
      eta   =   0.93583503584009808     
      gamma =  -0.99999999999999822     
      rotation matrix: 
      nu1 =    1.00000000       0.00000000       0.00000000    
      nu2 =    0.00000000       1.00000000       0.00000000    
      nu3 =    0.00000000       0.00000000       1.00000000    
      UTM x:    375100.56162660656     
      UTM y:    8335331.6561485864     
      depth:    10000.000000000000       m
      z:    10000.000000000000     



 station #           25     DB    L12
      original latitude:   -15.0469999    
      original longitude:   -172.181000    
      original UTM x:    373053.625    
      original UTM y:    8336150.50    
      original depth:   -10000.0000      m
      horizontal distance km:    24.4666538    
      target x, y, z:    373053.625       8336150.50       10000.0000    
      closest estimate found:    9.33139788E-10  m away

      receiver located in slice            8
                       in element          494
                       in acoustic domain
      at coordinates: 
      xi    =  -0.81895777745997089     
      eta   =  -0.27814393092097928     
      gamma =   -1.0000000000000000     
      rotation matrix: 
      nu1 =    1.00000000       0.00000000       0.00000000    
      nu2 =    0.00000000       1.00000000       0.00000000    
      nu3 =    0.00000000       0.00000000       1.00000000    
      UTM x:    373053.62462203426     
      UTM y:    8336150.4935599621     
      depth:    10000.000000000000       m
      z:    10000.000000000000     



 station #           26     DB    L13
      original latitude:   -15.0394001    
      original longitude:   -172.199997    
      original UTM x:    371006.469    
      original UTM y:    8336980.00    
      original depth:   -10000.0000      m
      horizontal distance km:    26.6755352    
      target x, y, z:    371006.469       8336980.00       10000.0000    
      closest estimate found:    0.00000000      m away

      receiver located in slice            8
                       in element          493
                       in acoustic domain
      at coordinates: 
      xi    =  -0.77313193834140692     
      eta   =   0.51833633259063960     
      gamma =   -1.0000000000000000     
      rotation matrix: 
      nu1 =    1.00000000       0.00000000       0.00000000    
      nu2 =    0.00000000       1.00000000       0.00000000    
      nu3 =    0.00000000       0.00000000       1.00000000    
      UTM x:    371006.47451865469     
      UTM y:    8336980.2268744772     
      depth:    10000.000000000000       m
      z:    10000.000000000000     



 station #           27     DB    M01
      original latitude:   -15.1300001    
      original longitude:   -171.970001    
      original UTM x:    395776.688    
      original UTM y:    8327079.50    
      original depth:   -20000.0000      m
      horizontal distance km:    9.31322619E-13
      target x, y, z:    395776.688       8327079.50       20000.0000    
      closest estimate found:    5.83212367E-11  m away

      receiver located in slice            9
                       in element          654
                       in acoustic domain
      at coordinates: 
      xi    =   0.87194496909104624     
      eta   =  -0.98588279467536477     
      gamma =  -0.99999999999999634     
      rotation matrix: 
      nu1 =    1.00000000       0.00000000       0.00000000    
      nu2 =    0.00000000       1.00000000       0.00000000    
      nu3 =    0.00000000       0.00000000       1.00000000    
      UTM x:    395776.69610082352     
      UTM y:    8327079.7065986469     
      depth:    20000.000000000004       m
      z:    20000.000000000004     



 station #           28     DB    M02
      original latitude:   -15.1225004    
      original longitude:   -171.988998    
      original UTM x:    393731.281    
      original UTM y:    8327900.00    
      original depth:   -20000.0000      m
      horizontal distance km:    2.20384574    
      target x, y, z:    393731.281       8327900.00       20000.0000    
      closest estimate found:    0.00000000      m away

      receiver located in slice            9
                       in element          653
                       in acoustic domain
      at coordinates: 
      xi    =   0.91944321402576745     
      eta   =  -0.19823254902252826     
      gamma =   -1.0000000000000000     
      rotation matrix: 
      nu1 =    1.00000000       0.00000000       0.00000000    
      nu2 =    0.00000000       1.00000000       0.00000000    
      nu3 =    0.00000000       0.00000000       1.00000000    
      UTM x:    393731.29671449331     
      UTM y:    8327900.2412420558     
      depth:    20000.000000000000       m
      z:    20000.000000000000     



 station #           29     DB    M03
      original latitude:   -15.1148996    
      original longitude:   -172.007996    
      original UTM x:    391685.688    
      original UTM y:    8328731.50    
      original depth:   -20000.0000      m
      horizontal distance km:    4.41194677    
      target x, y, z:    391685.688       8328731.50       20000.0000    
      closest estimate found:    5.82076609E-11  m away

      receiver located in slice            9
                       in element          652
                       in acoustic domain
      at coordinates: 
      xi    =   0.96677535874711451     
      eta   =   0.59987411689300207     
      gamma =   -1.0000000000000000     
      rotation matrix: 
      nu1 =    1.00000000       0.00000000       0.00000000    
      nu2 =    0.00000000       1.00000000       0.00000000    
      nu3 =    0.00000000       0.00000000       1.00000000    
      UTM x:    391685.69459261250     
      UTM y:    8328731.6688612737     
      depth:    20000.000000000000       m
      z:    20000.000000000000     



 station #           30     DB    M04
      original latitude:   -15.1073999    
      original longitude:   -172.028000    
      original UTM x:    389532.531    
      original UTM y:    8329551.50    
      original depth:   -20000.0000      m
      horizontal distance km:    6.71556425    
      target x, y, z:    389532.531       8329551.50       20000.0000    
      closest estimate found:    0.00000000      m away

      receiver located in slice            9
                       in element          657
                       in acoustic domain
      at coordinates: 
      xi    =   0.91139485719382884     
      eta   =  -0.61318923457845476     
      gamma =   -1.0000000000000000     
      rotation matrix: 
      nu1 =    1.00000000       0.00000000       0.00000000    
      nu2 =    0.00000000       1.00000000       0.00000000    
      nu3 =    0.00000000       0.00000000       1.00000000    
      UTM x:    389532.52155617840     
      UTM y:    8329551.3634121865     
      depth:    20000.000000000000       m
      z:    20000.000000000000     



 station #           31     DB    M05
      original latitude:   -15.0998001    
      original longitude:   -172.046997    
      original UTM x:    387486.594    
      original UTM y:    8330382.50    
      original depth:   -20000.0000      m
      horizontal distance km:    8.92376804    
      target x, y, z:    387486.594       8330382.50       20000.0000    
      closest estimate found:    0.00000000      m away

      receiver located in slice            9
                       in element          620
                       in acoustic domain
      at coordinates: 
      xi    =   0.95842958874797668     
      eta   =   0.18477657815665938     
      gamma =   0.99999999999999634     
      rotation matrix: 
      nu1 =    1.00000000       0.00000000       0.00000000    
      nu2 =    0.00000000       1.00000000       0.00000000    
      nu3 =    0.00000000       0.00000000       1.00000000    
      UTM x:    387486.60799652513     
      UTM y:    8330382.4448061511     
      depth:    20000.000000000000       m
      z:    20000.000000000000     



 station #           32     DB    M06
      original latitude:   -15.0923004    
      original longitude:   -172.065994    
      original UTM x:    385440.594    
      original UTM y:    8331202.50    
      original depth:   -20000.0000      m
      horizontal distance km:    11.1279268    
      target x, y, z:    385440.594       8331202.50       20000.0000    
      closest estimate found:    0.00000000      m away

      receiver located in slice            9
                       in element          656
                       in acoustic domain
      at coordinates: 
      xi    =  -0.99466016874683005     
      eta   =   0.97195954592491618     
      gamma =   -1.0000000000000000     
      rotation matrix: 
      nu1 =    1.00000000       0.00000000       0.00000000    
      nu2 =    0.00000000       1.00000000       0.00000000    
      nu3 =    0.00000000       0.00000000       1.00000000    
      UTM x:    385440.59389041201     
      UTM y:    8331202.2958670808     
      depth:    20000.000000000000       m
      z:    20000.000000000000     



 station #           33     DB    M07
      original latitude:   -15.0846996    
      original longitude:   -172.085007    
      original UTM x:    383394.375    
      original UTM y:    8332033.00    
      original depth:   -20000.0000      m
      horizontal distance km:    13.3363209    
      target x, y, z:    383394.375       8332033.00       20000.0000    
      closest estimate found:    0.00000000      m away

      receiver located in slice            9
                       in element          661
                       in acoustic domain
      at coordinates: 
      xi    =  -0.94791837734939055     
      eta   =  -0.23058213207281578     
      gamma =   -1.0000000000000000     
      rotation matrix: 
      nu1 =    1.00000000       0.00000000       0.00000000    
      nu2 =    0.00000000       1.00000000       0.00000000    
      nu3 =    0.00000000       0.00000000       1.00000000    
      UTM x:    383394.37288237864     
      UTM y:    8332033.0410639131     
      depth:    20000.000000000000       m
      z:    20000.000000000000     



 station #           34     DB    M08
      original latitude:   -15.0771999    
      original longitude:   -172.104004    
      original UTM x:    381348.062    
      original UTM y:    8332852.50    
      original depth:   -20000.0000      m
      horizontal distance km:    15.5406418    
      target x, y, z:    381348.062       8332852.50       20000.0000    
      closest estimate found:    0.00000000      m away

      receiver located in slice            8
                       in element          666
                       in acoustic domain
      at coordinates: 
      xi    =  -0.90129925109125442     
      eta   =   0.55608955846146857     
      gamma =   -1.0000000000000000     
      rotation matrix: 
      nu1 =    1.00000000       0.00000000       0.00000000    
      nu2 =    0.00000000       1.00000000       0.00000000    
      nu3 =    0.00000000       0.00000000       1.00000000    
      UTM x:    381348.05299547792     
      UTM y:    8332852.5562975276     
      depth:    20000.000000000000       m
      z:    20000.000000000000     



 station #           35     DB    M09
      original latitude:   -15.0696001    
      original longitude:   -172.123001    
      original UTM x:    379301.531    
      original UTM y:    8333683.00    
      original depth:   -20000.0000      m
      horizontal distance km:    17.7492065    
      target x, y, z:    379301.531       8333683.00       20000.0000    
      closest estimate found:    9.31322575E-10  m away

      receiver located in slice            8
                       in element          635
                       in acoustic domain
      at coordinates: 
      xi    =  -0.85485269687241927     
      eta   =  -0.64678065950653951     
      gamma =    1.0000000000000000     
      rotation matrix: 
      nu1 =    1.00000000       0.00000000       0.00000000    
      nu2 =    0.00000000       1.00000000       0.00000000    
      nu3 =    0.00000000       0.00000000       1.00000000    
      UTM x:    379301.52415758581     
      UTM y:    8333682.9662479581     
      depth:    20000.000000000000       m
      z:    20000.000000000000     



 station #           36     DB    M10
      original latitude:   -15.0621004    
      original longitude:   -172.143005    
      original UTM x:    377147.406    
      original UTM y:    8334501.50    
      original depth:   -20000.0000      m
      horizontal distance km:    20.0533009    
      target x, y, z:    377147.406       8334501.50       20000.0000    
      closest estimate found:    5.82076609E-11  m away

      receiver located in slice            8
                       in element          670
                       in acoustic domain
      at coordinates: 
      xi    =  -0.91113730405498083     
      eta   =   0.13903480229391049     
      gamma =   -1.0000000000000036     
      rotation matrix: 
      nu1 =    1.00000000       0.00000000       0.00000000    
      nu2 =    0.00000000       1.00000000       0.00000000    
      nu3 =    0.00000000       0.00000000       1.00000000    
      UTM x:    377147.40311640053     
      UTM y:    8334501.5895052897     
      depth:    20000.000000000000       m
      z:    20000.000000000000     



 station #           37     DB    M11
      original latitude:   -15.0544996    
      original longitude:   -172.162003    
      original UTM x:    375100.562    
      original UTM y:    8335331.50    
      original depth:   -20000.0000      m
      horizontal distance km:    22.2620125    
      target x, y, z:    375100.562       8335331.50       20000.0000    
      closest estimate found:    3.63797881E-12  m away

      receiver located in slice            8
                       in element          669
                       in acoustic domain
      at coordinates: 
      xi    =  -0.86498905075882626     
      eta   =   0.93583503584099204     
      gamma =   -1.0000000000000000     
      rotation matrix: 
      nu1 =    1.00000000       0.00000000       0.00000000    
      nu2 =    0.00000000       1.00000000       0.00000000    
      nu3 =    0.00000000       0.00000000       1.00000000    
      UTM x:    375100.56162660656     
      UTM y:    8335331.6561485864     
      depth:    19999.999999999996       m
      z:    19999.999999999996     



 station #           38     DB    M12
      original latitude:   -15.0469999    
      original longitude:   -172.181000    
      original UTM x:    373053.625    
      original UTM y:    8336150.50    
      original depth:   -20000.0000      m
      horizontal distance km:    24.4666538    
      target x, y, z:    373053.625       8336150.50       20000.0000    
      closest estimate found:    9.33139788E-10  m away

      receiver located in slice            8
                       in element          638
                       in acoustic domain
      at coordinates: 
      xi    =  -0.81895777745997089     
      eta   =  -0.27814393092097928     
      gamma =    1.0000000000000000     
      rotation matrix: 
      nu1 =    1.00000000       0.00000000       0.00000000    
      nu2 =    0.00000000       1.00000000       0.00000000    
      nu3 =    0.00000000       0.00000000       1.00000000    
      UTM x:    373053.62462203426     
      UTM y:    8336150.4935599621     
      depth:    20000.000000000000       m
      z:    20000.000000000000     



 station #           39     DB    M13
      original latitude:   -15.0394001    
      original longitude:   -172.199997    
      original UTM x:    371006.469    
      original UTM y:    8336980.00    
      original depth:   -20000.0000      m
      horizontal distance km:    26.6755352    
      target x, y, z:    371006.469       8336980.00       20000.0000    
      closest estimate found:    0.00000000      m away

      receiver located in slice            8
                       in element          637
                       in acoustic domain
      at coordinates: 
      xi    =  -0.77313193834146243     
      eta   =   0.51833633258974554     
      gamma =   0.99999999999999634     
      rotation matrix: 
      nu1 =    1.00000000       0.00000000       0.00000000    
      nu2 =    0.00000000       1.00000000       0.00000000    
      nu3 =    0.00000000       0.00000000       1.00000000    
      UTM x:    371006.47451865469     
      UTM y:    8336980.2268744772     
      depth:    20000.000000000000       m
      z:    20000.000000000000     



 station #           40     CC    S19
      original latitude:   -15.0580997    
      original longitude:   -171.744003    
      original UTM x:    420034.125    
      original UTM y:    8335127.50    
      original depth:   -0.00000000      m
      horizontal distance km:    25.5576057    
      target x, y, z:    420034.125       8335127.50       0.00000000    
      closest estimate found:    1.04894773E-14  m away

      receiver located in slice           11
                       in element          276
                       in acoustic domain
      at coordinates: 
      xi    =    2.7502873256918258E-002
      eta   =   0.73994502969064702     
      gamma =   0.99999999999999989     
      rotation matrix: 
      nu1 =    1.00000000       0.00000000       0.00000000    
      nu2 =    0.00000000       1.00000000       0.00000000    
      nu3 =    0.00000000       0.00000000       1.00000000    
      UTM x:    420034.12433813099     
      UTM y:    8335127.5877346806     
      depth:    1.0489477152806448E-014  m
      z:    1.0489477152806448E-014



 station #           41     CC    S37
      original latitude:   -14.9940996    
      original longitude:   -171.778000    
      original UTM x:    416354.656    
      original UTM y:    8342194.00    
      original depth:   -0.00000000      m
      horizontal distance km:    25.5323429    
      target x, y, z:    416354.656       8342194.00       0.00000000    
      closest estimate found:    1.06164458E-14  m away

      receiver located in slice           15
                       in element          262
                       in acoustic domain
      at coordinates: 
      xi    =   0.51516761853113002     
      eta   =  -0.47651665549821792     
      gamma =   0.99999999999999867     
      rotation matrix: 
      nu1 =    1.00000000       0.00000000       0.00000000    
      nu2 =    0.00000000       1.00000000       0.00000000    
      nu3 =    0.00000000       0.00000000       1.00000000    
      UTM x:    416354.65512737562     
      UTM y:    8342194.2079032995     
      depth:    1.0616445704924426E-014  m
      z:    1.0616445704924426E-014



 station #           42     CC    S55
      original latitude:   -14.9434004    
      original longitude:   -171.830994    
      original UTM x:    410635.094    
      original UTM y:    8347781.50    
      original depth:   -0.00000000      m
      horizontal distance km:    25.4821796    
      target x, y, z:    410635.094       8347781.50       0.00000000    
      closest estimate found:    3.60086623E-15  m away

      receiver located in slice           15
                       in element          272
                       in acoustic domain
      at coordinates: 
      xi    =  -0.94456708875538353     
      eta   =   0.88732380825397716     
      gamma =   0.99999999999999833     
      rotation matrix: 
      nu1 =    1.00000000       0.00000000       0.00000000    
      nu2 =    0.00000000       1.00000000       0.00000000    
      nu3 =    0.00000000       0.00000000       1.00000000    
      UTM x:    410635.10242136416     
      UTM y:    8347781.6195772486     
      depth:    3.6008661277978778E-015  m
      z:    3.6008661277978778E-015



 station #           43     CC    S73
      original latitude:   -14.9110003    
      original longitude:   -171.897003    
      original UTM x:    403522.594    
      original UTM y:    8351338.00    
      original depth:   -0.00000000      m
      horizontal distance km:    25.4648933    
      target x, y, z:    403522.594       8351338.00       0.00000000    
      closest estimate found:    9.31322575E-10  m away

      receiver located in slice           14
                       in element          286
                       in acoustic domain
      at coordinates: 
      xi    =   0.26597947932863691     
      eta   =   0.30112003583218772     
      gamma =    1.0000000000000000     
      rotation matrix: 
      nu1 =    1.00000000       0.00000000       0.00000000    
      nu2 =    0.00000000       1.00000000       0.00000000    
      nu3 =    0.00000000       0.00000000       1.00000000    
      UTM x:    403522.58740924357     
      UTM y:    8351337.9417973291     
      depth:    0.0000000000000000       m
      z:    0.0000000000000000     



 station #           44     CC    S109
      original latitude:   -14.9115000    
      original longitude:   -172.044006    
      original UTM x:    387710.750    
      original UTM y:    8351213.50    
      original depth:   -0.00000000      m
      horizontal distance km:    25.4462090    
      target x, y, z:    387710.750       8351213.50       0.00000000    
      closest estimate found:    3.33645871E-14  m away

      receiver located in slice           13
                       in element          321
                       in acoustic domain
      at coordinates: 
      xi    =  -0.82761446561127494     
      eta   =   0.18186457763945196     
      gamma =  -0.99999999999999967     
      rotation matrix: 
      nu1 =    1.00000000       0.00000000       0.00000000    
      nu2 =    0.00000000       1.00000000       0.00000000    
      nu3 =    0.00000000       0.00000000       1.00000000    
      UTM x:    387710.74625841598     
      UTM y:    8351213.7074237559     
      depth:    3.3364587006081938E-014  m
      z:   -3.3364587006081938E-014



 station #           45     CC    S127
      original latitude:   -14.9443998    
      original longitude:   -172.110992    
      original UTM x:    380521.875    
      original UTM y:    8347539.50    
      original depth:   -0.00000000      m
      horizontal distance km:    25.5207462    
      target x, y, z:    380521.875       8347539.50       0.00000000    
      closest estimate found:    7.51146514E-14  m away

      receiver located in slice           12
                       in element          275
                       in acoustic domain
      at coordinates: 
      xi    =   0.31004166993259585     
      eta   =   0.65479757036964581     
      gamma =    1.0000000000000004     
      rotation matrix: 
      nu1 =    1.00000000       0.00000000       0.00000000    
      nu2 =    0.00000000       1.00000000       0.00000000    
      nu3 =    0.00000000       0.00000000       1.00000000    
      UTM x:    380521.86021566094     
      UTM y:    8347539.3853689320     
      depth:    7.5114652759947919E-014  m
      z:   -7.5114652759947919E-014



 station #           46     CC    S145
      original latitude:   -14.9954004    
      original longitude:   -172.162994    
      original UTM x:    374958.656    
      original UTM y:    8341869.00    
      original depth:   -0.00000000      m
      horizontal distance km:    25.5365047    
      target x, y, z:    374958.656       8341869.00       0.00000000    
      closest estimate found:    0.00000000      m away

      receiver located in slice           12
                       in element          260
                       in acoustic domain
      at coordinates: 
      xi    =   0.99955064827954543     
      eta   =  -0.78879967425775166     
      gamma =    1.0000000000000000     
      rotation matrix: 
      nu1 =    1.00000000       0.00000000       0.00000000    
      nu2 =    0.00000000       1.00000000       0.00000000    
      nu3 =    0.00000000       0.00000000       1.00000000    
      UTM x:    374958.65426896722     
      UTM y:    8341868.9651392605     
      depth:    0.0000000000000000       m
      z:    0.0000000000000000     



 station #           47     CC    S163
      original latitude:   -15.0595999    
      original longitude:   -172.197006    
      original UTM x:    371341.125    
      original UTM y:    8334747.50    
      original depth:   -0.00000000      m
      horizontal distance km:    25.6103477    
      target x, y, z:    371341.125       8334747.50       0.00000000    
      closest estimate found:    1.02503441E-13  m away

      receiver located in slice            8
                       in element          271
                       in acoustic domain
      at coordinates: 
      xi    =  -0.45368222714046136     
      eta   =   0.37494164145494180     
      gamma =    1.0000000000000004     
      rotation matrix: 
      nu1 =    1.00000000       0.00000000       0.00000000    
      nu2 =    0.00000000       1.00000000       0.00000000    
      nu3 =    0.00000000       0.00000000       1.00000000    
      UTM x:    371341.12304814637     
      UTM y:    8334747.3454549853     
      depth:    1.0250343831489663E-013  m
      z:    1.0250343831489663E-013



 station #           48     CC    S199
      original latitude:   -15.2017002    
      original longitude:   -172.195999    
      original UTM x:    371534.281    
      original UTM y:    8319028.00    
      original depth:   -0.00000000      m
      horizontal distance km:    25.5445690    
      target x, y, z:    371534.281       8319028.00       0.00000000    
      closest estimate found:    0.00000000      m away

      receiver located in slice            4
                       in element          265
                       in acoustic domain
      at coordinates: 
      xi    =  -0.26929240523196463     
      eta   =  -0.71535127509276375     
      gamma =    1.0000000000000000     
      rotation matrix: 
      nu1 =    1.00000000       0.00000000       0.00000000    
      nu2 =    0.00000000       1.00000000       0.00000000    
      nu3 =    0.00000000       0.00000000       1.00000000    
      UTM x:    371534.28579205036     
      UTM y:    8319027.9616469909     
      depth:    0.0000000000000000       m
      z:    0.0000000000000000     



 station #           49     CC    S217
      original latitude:   -15.2658005    
      original longitude:   -172.162003    
      original UTM x:    375224.562    
      original UTM y:    8311956.50    
      original depth:   -0.00000000      m
      horizontal distance km:    25.5166664    
      target x, y, z:    375224.562       8311956.50       0.00000000    
      closest estimate found:    4.42283912E-14  m away

      receiver located in slice            0
                       in element          279
                       in acoustic domain
      at coordinates: 
      xi    =  -0.74662815797214588     
      eta   =   0.49657101717354984     
      gamma =    1.0000000000000004     
      rotation matrix: 
      nu1 =    1.00000000       0.00000000       0.00000000    
      nu2 =    0.00000000       1.00000000       0.00000000    
      nu3 =    0.00000000       0.00000000       1.00000000    
      UTM x:    375224.55575813435     
      UTM y:    8311956.5528571401     
      depth:    4.4228392223906635E-014  m
      z:    4.4228392223906635E-014



 station #           50     CC    S235
      original latitude:   -15.3164997    
      original longitude:   -172.108994    
      original UTM x:    380944.969    
      original UTM y:    8306377.50    
      original depth:   -0.00000000      m
      horizontal distance km:    25.4668083    
      target x, y, z:    380944.969       8306377.50       0.00000000    
      closest estimate found:    0.00000000      m away

      receiver located in slice            0
                       in element          269
                       in acoustic domain
      at coordinates: 
      xi    =   0.71391480629536619     
      eta   =  -0.85925518397277811     
      gamma =    1.0000000000000000     
      rotation matrix: 
      nu1 =    1.00000000       0.00000000       0.00000000    
      nu2 =    0.00000000       1.00000000       0.00000000    
      nu3 =    0.00000000       0.00000000       1.00000000    
      UTM x:    380944.95518910745     
      UTM y:    8306377.5857258923     
      depth:    0.0000000000000000       m
      z:    0.0000000000000000     



 station #           51     CC    S253
      original latitude:   -15.3490000    
      original longitude:   -172.042999    
      original UTM x:    388048.281    
      original UTM y:    8302817.50    
      original depth:   -0.00000000      m
      horizontal distance km:    25.4633694    
      target x, y, z:    388048.281       8302817.50       0.00000000    
      closest estimate found:    5.16595061E-14  m away

      receiver located in slice            1
                       in element          255
                       in acoustic domain
      at coordinates: 
      xi    =  -0.50540172148831541     
      eta   =  -0.27670375564985278     
      gamma =   0.99999999999999989     
      rotation matrix: 
      nu1 =    1.00000000       0.00000000       0.00000000    
      nu2 =    0.00000000       1.00000000       0.00000000    
      nu3 =    0.00000000       0.00000000       1.00000000    
      UTM x:    388048.29431532964     
      UTM y:    8302817.4938625516     
      depth:    5.1659504747271785E-014  m
      z:    5.1659504747271785E-014



 station #           52     CC    S289
      original latitude:   -15.3485003    
      original longitude:   -171.895996    
      original UTM x:    403827.688    
      original UTM y:    8302943.50    
      original depth:   -0.00000000      m
      horizontal distance km:    25.4435806    
      target x, y, z:    403827.688       8302943.50       0.00000000    
      closest estimate found:    9.31322575E-10  m away

      receiver located in slice            2
                       in element          256
                       in acoustic domain
      at coordinates: 
      xi    =   0.55723331212648397     
      eta   =  -0.15576060582150000     
      gamma =    1.0000000000000000     
      rotation matrix: 
      nu1 =    1.00000000       0.00000000       0.00000000    
      nu2 =    0.00000000       1.00000000       0.00000000    
      nu3 =    0.00000000       0.00000000       1.00000000    
      UTM x:    403827.69855330494     
      UTM y:    8302943.4863888845     
      depth:    0.0000000000000000       m
      z:    0.0000000000000000     



 station #           53     CC    S307
      original latitude:   -15.3156004    
      original longitude:   -171.828995    
      original UTM x:    411005.688    
      original UTM y:    8306611.50    
      original depth:   -0.00000000      m
      horizontal distance km:    25.5121841    
      target x, y, z:    411005.688       8306611.50       0.00000000    
      closest estimate found:    9.38570333E-10  m away

      receiver located in slice            3
                       in element          266
                       in acoustic domain
      at coordinates: 
      xi    =  -0.59082339472980516     
      eta   =  -0.63471050624854253     
      gamma =    1.0000000000000000     
      rotation matrix: 
      nu1 =    1.00000000       0.00000000       0.00000000    
      nu2 =    0.00000000       1.00000000       0.00000000    
      nu3 =    0.00000000       0.00000000       1.00000000    
      UTM x:    411005.68210432737     
      UTM y:    8306611.4490077412     
      depth:    6.7970138386085377E-014  m
      z:   -6.7970138386085377E-014



 station #           54     CC    S325
      original latitude:   -15.2644997    
      original longitude:   -171.776993    
      original UTM x:    416568.031    
      original UTM y:    8312284.50    
      original depth:   -0.00000000      m
      horizontal distance km:    25.5181561    
      target x, y, z:    416568.031       8312284.50       0.00000000    
      closest estimate found:    5.82076609E-11  m away

      receiver located in slice            3
                       in element          280
                       in acoustic domain
      at coordinates: 
      xi    =   0.71886408488074205     
      eta   =   0.81144185630800814     
      gamma =    1.0000000000000000     
      rotation matrix: 
      nu1 =    1.00000000       0.00000000       0.00000000    
      nu2 =    0.00000000       1.00000000       0.00000000    
      nu3 =    0.00000000       0.00000000       1.00000000    
      UTM x:    416568.04627242044     
      UTM y:    8312284.5695538083     
      depth:    0.0000000000000000       m
      z:    0.0000000000000000     



 station #           55     CC    S343
      original latitude:   -15.2002001    
      original longitude:   -171.742996    
      original UTM x:    420194.812    
      original UTM y:    8319410.00    
      original depth:   -0.00000000      m
      horizontal distance km:    25.5943680    
      target x, y, z:    420194.812       8319410.00       0.00000000    
      closest estimate found:    5.28870432E-14  m away

      receiver located in slice            7
                       in element          270
                       in acoustic domain
      at coordinates: 
      xi    =   0.18089077472233120     
      eta   =  -0.34871452042057810     
      gamma =   0.99999999999999922     
      rotation matrix: 
      nu1 =    1.00000000       0.00000000       0.00000000    
      nu2 =    0.00000000       1.00000000       0.00000000    
      nu3 =    0.00000000       0.00000000       1.00000000    
      UTM x:    420194.81254503177     
      UTM y:    8319409.8138269819     
      depth:    5.2887044194579489E-014  m
      z:   -5.2887044194579489E-014


 maximum error in location of all the receivers:    9.38572109E-10  m

 Elapsed time for receiver detection in seconds =   0.43146395683288574     

 End of receiver detection - done

 source arrays:
   number of sources is            1
   size of source array                 =    1.43051147E-03 MB
                                        =    1.39698386E-06 GB

 seismograms:
   seismograms written by all processes
   writing out seismograms at every NTSTEP_BETWEEN_OUTPUT_SEISMOS =         5000
   maximum number of local receivers is           21  in slice            9
   size of maximum seismogram array       =    1.20162964     MB
                                          =    1.17346644E-03 GB


 Total number of samples for seismograms =        20000

 found a total of           55  receivers in all the slices


 Simulation setup:

 incorporating acoustic simulation
 incorporating elastic simulation
   no poroelastic simulation

   no attenuation
   no anisotropy
   no oceans
   no gravity
 incorporating movie simulation


   no dynamic faults
   no kinematic faults

   no gravity simulation


 Elapsed time for preparing timerun in seconds =    5.9468746185302734E-003

 ************
  time loop
 ************
               scheme:         Newmark

            time step:    9.99999978E-03  s
 number of time steps:        20000
 total simulated time:    200.000000      seconds
 start time:  -16.0000000      seconds

 All processes are synchronized before time loop

 Starting time iteration loop...

 Time step #            5
 Time:   -15.9600000      seconds
 Elapsed time in seconds =    5.4687976837158203E-002
 Elapsed time in hh:mm:ss =      0 h 00 m 00 s
 Mean elapsed time per time step in seconds =    1.09375957E-02
 Max norm displacement vector U in all slices (m) =    9.89432707E-02
 Max norm pressure P in all slices (Pa) =    0.00000000    
 Time steps done =            5  out of        20000
 Time steps remaining =        19995
 Estimated remaining time in seconds =    218.697220    
 Estimated remaining time in hh:mm:ss =      0 h 03 m 38 s
 Estimated total run time in seconds =    218.751907    
 Estimated total run time in hh:mm:ss =      0 h 03 m 38 s
 We have done    2.50000004E-02 % of that
 The run will finish approximately on (in local time): Mon Jun 03, 2019 22:38
 ************************************************************
 **** BEWARE: the above time estimates are not very reliable
 **** because fewer than 100 iterations have been performed
 ************************************************************

 Time step #          500
 Time:   -11.0100002      seconds
 Elapsed time in seconds =    12.440417051315308     
 Elapsed time in hh:mm:ss =      0 h 00 m 12 s
 Mean elapsed time per time step in seconds =    2.48808339E-02
 Max norm displacement vector U in all slices (m) =    36.5935440    
 Max norm pressure P in all slices (Pa) =    41509.7656    
 Time steps done =          500  out of        20000
 Time steps remaining =        19500
 Estimated remaining time in seconds =    485.176270    
 Estimated remaining time in hh:mm:ss =      0 h 08 m 05 s
 Estimated total run time in seconds =    497.616669    
 Estimated total run time in hh:mm:ss =      0 h 08 m 17 s
 We have done    2.50000000     % of that
 The run will finish approximately on (in local time): Mon Jun 03, 2019 22:43

 Time step #         1000
 Time:   -6.01000023      seconds
 Elapsed time in seconds =    24.734200954437256     
 Elapsed time in hh:mm:ss =      0 h 00 m 24 s
 Mean elapsed time per time step in seconds =    2.47342009E-02
 Max norm displacement vector U in all slices (m) =    2008.33655    
 Max norm pressure P in all slices (Pa) =    1213889.50    
 Time steps done =         1000  out of        20000
 Time steps remaining =        19000
 Estimated remaining time in seconds =    469.949829    
 Estimated remaining time in hh:mm:ss =      0 h 07 m 49 s
 Estimated total run time in seconds =    494.684021    
 Estimated total run time in hh:mm:ss =      0 h 08 m 14 s
 We have done    5.00000000     % of that
 The run will finish approximately on (in local time): Mon Jun 03, 2019 22:43

 Time step #         1500
 Time:   -1.00999999      seconds
 Elapsed time in seconds =    33.947946071624756     
 Elapsed time in hh:mm:ss =      0 h 00 m 33 s
 Mean elapsed time per time step in seconds =    2.26319637E-02
 Max norm displacement vector U in all slices (m) =    18573.6699    
 Max norm pressure P in all slices (Pa) =    2395057.00    
 Time steps done =         1500  out of        20000
 Time steps remaining =        18500
 Estimated remaining time in seconds =    418.691345    
 Estimated remaining time in hh:mm:ss =      0 h 06 m 58 s
 Estimated total run time in seconds =    452.639282    
 Estimated total run time in hh:mm:ss =      0 h 07 m 32 s
 We have done    7.50000000     % of that
 The run will finish approximately on (in local time): Mon Jun 03, 2019 22:42

 Time step #         2000
 Time:    3.99000001      seconds
 Elapsed time in seconds =    41.498287916183472     
 Elapsed time in hh:mm:ss =      0 h 00 m 41 s
 Mean elapsed time per time step in seconds =    2.07491443E-02
 Max norm displacement vector U in all slices (m) =    42208.9961    
 Max norm pressure P in all slices (Pa) =    3394504.25    
 Time steps done =         2000  out of        20000
 Time steps remaining =        18000
 Estimated remaining time in seconds =    373.484589    
 Estimated remaining time in hh:mm:ss =      0 h 06 m 13 s
 Estimated total run time in seconds =    414.982880    
 Estimated total run time in hh:mm:ss =      0 h 06 m 54 s
 We have done    10.0000000     % of that
 The run will finish approximately on (in local time): Mon Jun 03, 2019 22:41

 Time step #         2500
 Time:    8.98999977      seconds
 Elapsed time in seconds =    48.759463071823120     
 Elapsed time in hh:mm:ss =      0 h 00 m 48 s
 Mean elapsed time per time step in seconds =    1.95037853E-02
 Max norm displacement vector U in all slices (m) =    48054.3359    
 Max norm pressure P in all slices (Pa) =    304866.688    
 Time steps done =         2500  out of        20000
 Time steps remaining =        17500
 Estimated remaining time in seconds =    341.316254    
 Estimated remaining time in hh:mm:ss =      0 h 05 m 41 s
 Estimated total run time in seconds =    390.075714    
 Estimated total run time in hh:mm:ss =      0 h 06 m 30 s
 We have done    12.5000000     % of that
 The run will finish approximately on (in local time): Mon Jun 03, 2019 22:41

 Time step #         3000
 Time:    13.9899998      seconds
 Elapsed time in seconds =    55.586648941040039     
 Elapsed time in hh:mm:ss =      0 h 00 m 55 s
 Mean elapsed time per time step in seconds =    1.85288824E-02
 Max norm displacement vector U in all slices (m) =    48289.2500    
 Max norm pressure P in all slices (Pa) =    179483.172    
 Time steps done =         3000  out of        20000
 Time steps remaining =        17000
 Estimated remaining time in seconds =    314.990997    
 Estimated remaining time in hh:mm:ss =      0 h 05 m 14 s
 Estimated total run time in seconds =    370.577667    
 Estimated total run time in hh:mm:ss =      0 h 06 m 10 s
 We have done    15.0000000     % of that
 The run will finish approximately on (in local time): Mon Jun 03, 2019 22:40

 Time step #         3500
 Time:    18.9899998      seconds
 Elapsed time in seconds =    61.358557939529419     
 Elapsed time in hh:mm:ss =      0 h 01 m 01 s
 Mean elapsed time per time step in seconds =    1.75310168E-02
 Max norm displacement vector U in all slices (m) =    48291.9922    
 Max norm pressure P in all slices (Pa) =    306220.781    
 Time steps done =         3500  out of        20000
 Time steps remaining =        16500
 Estimated remaining time in seconds =    289.261780    
 Estimated remaining time in hh:mm:ss =      0 h 04 m 49 s
 Estimated total run time in seconds =    350.620331    
 Estimated total run time in hh:mm:ss =      0 h 05 m 50 s
 We have done    17.5000000     % of that
 The run will finish approximately on (in local time): Mon Jun 03, 2019 22:40

 Time step #         4000
 Time:    23.9899998      seconds
 Elapsed time in seconds =    66.657861948013306     
 Elapsed time in hh:mm:ss =      0 h 01 m 06 s
 Mean elapsed time per time step in seconds =    1.66644659E-02
 Max norm displacement vector U in all slices (m) =    48293.3789    
 Max norm pressure P in all slices (Pa) =    317504.969    
 Time steps done =         4000  out of        20000
 Time steps remaining =        16000
 Estimated remaining time in seconds =    266.631439    
 Estimated remaining time in hh:mm:ss =      0 h 04 m 26 s
 Estimated total run time in seconds =    333.289307    
 Estimated total run time in hh:mm:ss =      0 h 05 m 33 s
 We have done    20.0000000     % of that
 The run will finish approximately on (in local time): Mon Jun 03, 2019 22:39

 Time step #         4500
 Time:    28.9899998      seconds
 Elapsed time in seconds =    71.630367040634155     
 Elapsed time in hh:mm:ss =      0 h 01 m 11 s
 Mean elapsed time per time step in seconds =    1.59178600E-02
 Max norm displacement vector U in all slices (m) =    48294.6133    
 Max norm pressure P in all slices (Pa) =    472517.562    
 Time steps done =         4500  out of        20000
 Time steps remaining =        15500
 Estimated remaining time in seconds =    246.726822    
 Estimated remaining time in hh:mm:ss =      0 h 04 m 06 s
 Estimated total run time in seconds =    318.357178    
 Estimated total run time in hh:mm:ss =      0 h 05 m 18 s
 We have done    22.5000000     % of that
 The run will finish approximately on (in local time): Mon Jun 03, 2019 22:40

 Time step #         5000
 Time:    33.9900017      seconds
 Elapsed time in seconds =    76.879456043243408     
 Elapsed time in hh:mm:ss =      0 h 01 m 16 s
 Mean elapsed time per time step in seconds =    1.53758908E-02
 Max norm displacement vector U in all slices (m) =    48296.3320    
 Max norm pressure P in all slices (Pa) =    403293.812    
 Time steps done =         5000  out of        20000
 Time steps remaining =        15000
 Estimated remaining time in seconds =    230.638367    
 Estimated remaining time in hh:mm:ss =      0 h 03 m 50 s
 Estimated total run time in seconds =    307.517822    
 Estimated total run time in hh:mm:ss =      0 h 05 m 07 s
 We have done    25.0000000     % of that
 The run will finish approximately on (in local time): Mon Jun 03, 2019 22:40


 Total number of time steps written:         5000
 Writing the seismograms in parallel took    14.7805824      seconds

 Time step #         5500
 Time:    38.9900017      seconds
 Elapsed time in seconds =    97.012297868728638     
 Elapsed time in hh:mm:ss =      0 h 01 m 37 s
 Mean elapsed time per time step in seconds =    1.76385995E-02
 Max norm displacement vector U in all slices (m) =    48298.3945    
 Max norm pressure P in all slices (Pa) =    496504.531    
 Time steps done =         5500  out of        20000
 Time steps remaining =        14500
 Estimated remaining time in seconds =    255.759689    
 Estimated remaining time in hh:mm:ss =      0 h 04 m 15 s
 Estimated total run time in seconds =    352.772003    
 Estimated total run time in hh:mm:ss =      0 h 05 m 52 s
 We have done    27.5000000     % of that
 The run will finish approximately on (in local time): Mon Jun 03, 2019 22:40

 Time step #         6000
 Time:    43.9900017      seconds
 Elapsed time in seconds =    101.97066402435303     
 Elapsed time in hh:mm:ss =      0 h 01 m 41 s
 Mean elapsed time per time step in seconds =    1.69951115E-02
 Max norm displacement vector U in all slices (m) =    48300.1250    
 Max norm pressure P in all slices (Pa) =    438866.500    
 Time steps done =         6000  out of        20000
 Time steps remaining =        14000
 Estimated remaining time in seconds =    237.931549    
 Estimated remaining time in hh:mm:ss =      0 h 03 m 57 s
 Estimated total run time in seconds =    339.902222    
 Estimated total run time in hh:mm:ss =      0 h 05 m 39 s
 We have done    30.0000000     % of that
 The run will finish approximately on (in local time): Mon Jun 03, 2019 22:40

 Time step #         6500
 Time:    48.9900017      seconds
 Elapsed time in seconds =    106.98464393615723     
 Elapsed time in hh:mm:ss =      0 h 01 m 46 s
 Mean elapsed time per time step in seconds =    1.64591763E-02
 Max norm displacement vector U in all slices (m) =    48301.8359    
 Max norm pressure P in all slices (Pa) =    417257.250    
 Time steps done =         6500  out of        20000
 Time steps remaining =        13500
 Estimated remaining time in seconds =    222.198883    
 Estimated remaining time in hh:mm:ss =      0 h 03 m 42 s
 Estimated total run time in seconds =    329.183533    
 Estimated total run time in hh:mm:ss =      0 h 05 m 29 s
 We have done    32.5000000     % of that
 The run will finish approximately on (in local time): Mon Jun 03, 2019 22:40

 Time step #         7000
 Time:    53.9900017      seconds
 Elapsed time in seconds =    111.71481800079346     
 Elapsed time in hh:mm:ss =      0 h 01 m 51 s
 Mean elapsed time per time step in seconds =    1.59592591E-02
 Max norm displacement vector U in all slices (m) =    48303.0195    
 Max norm pressure P in all slices (Pa) =    359190.688    
 Time steps done =         7000  out of        20000
 Time steps remaining =        13000
 Estimated remaining time in seconds =    207.470383    
 Estimated remaining time in hh:mm:ss =      0 h 03 m 27 s
 Estimated total run time in seconds =    319.185181    
 Estimated total run time in hh:mm:ss =      0 h 05 m 19 s
 We have done    35.0000000     % of that
 The run will finish approximately on (in local time): Mon Jun 03, 2019 22:39

 Time step #         7500
 Time:    58.9900017      seconds
 Elapsed time in seconds =    116.70653700828552     
 Elapsed time in hh:mm:ss =      0 h 01 m 56 s
 Mean elapsed time per time step in seconds =    1.55608719E-02
 Max norm displacement vector U in all slices (m) =    48305.2109    
 Max norm pressure P in all slices (Pa) =    381824.875    
 Time steps done =         7500  out of        20000
 Time steps remaining =        12500
[...]
 Time steps remaining =        12000
 Estimated remaining time in seconds =    182.145981    
 Estimated remaining time in hh:mm:ss =      0 h 03 m 02 s
 Estimated total run time in seconds =    303.576630    
 Estimated total run time in hh:mm:ss =      0 h 05 m 03 s
 We have done    40.0000000     % of that
 The run will finish approximately on (in local time): Mon Jun 03, 2019 22:39

 Time step #         8500
 Time:    68.9899979      seconds
 Elapsed time in seconds =    125.91372489929199     
 Elapsed time in hh:mm:ss =      0 h 02 m 05 s
 Mean elapsed time per time step in seconds =    1.48133794E-02
 Max norm displacement vector U in all slices (m) =    48312.3242    
 Max norm pressure P in all slices (Pa) =    435102.406    
 Time steps done =         8500  out of        20000
 Time steps remaining =        11500
 Estimated remaining time in seconds =    170.353867    
 Estimated remaining time in hh:mm:ss =      0 h 02 m 50 s
 Estimated total run time in seconds =    296.267578    
 Estimated total run time in hh:mm:ss =      0 h 04 m 56 s
 We have done    42.5000000     % of that
 The run will finish approximately on (in local time): Mon Jun 03, 2019 22:39

 Time step #         9000
 Time:    73.9899979      seconds
 Elapsed time in seconds =    130.33837509155273     
 Elapsed time in hh:mm:ss =      0 h 02 m 10 s
 Mean elapsed time per time step in seconds =    1.44820418E-02
 Max norm displacement vector U in all slices (m) =    48316.1172    
 Max norm pressure P in all slices (Pa) =    378633.062    
 Time steps done =         9000  out of        20000
 Time steps remaining =        11000
 Estimated remaining time in seconds =    159.302460    
 Estimated remaining time in hh:mm:ss =      0 h 02 m 39 s
 Estimated total run time in seconds =    289.640839    
 Estimated total run time in hh:mm:ss =      0 h 04 m 49 s
 We have done    45.0000000     % of that
 The run will finish approximately on (in local time): Mon Jun 03, 2019 22:40

 Time step #         9500
 Time:    78.9899979      seconds
 Elapsed time in seconds =    135.13275599479675     
 Elapsed time in hh:mm:ss =      0 h 02 m 15 s
 Mean elapsed time per time step in seconds =    1.42245004E-02
 Max norm displacement vector U in all slices (m) =    48321.1445    
 Max norm pressure P in all slices (Pa) =    355640.531    
 Time steps done =         9500  out of        20000
 Time steps remaining =        10500
 Estimated remaining time in seconds =    149.357254    
 Estimated remaining time in hh:mm:ss =      0 h 02 m 29 s
 Estimated total run time in seconds =    284.490021    
 Estimated total run time in hh:mm:ss =      0 h 04 m 44 s
 We have done    47.5000000     % of that
 The run will finish approximately on (in local time): Mon Jun 03, 2019 22:39

 Time step #        10000
 Time:    83.9899979      seconds
 Elapsed time in seconds =    139.57729196548462     
 Elapsed time in hh:mm:ss =      0 h 02 m 19 s
 Mean elapsed time per time step in seconds =    1.39577296E-02
 Max norm displacement vector U in all slices (m) =    48325.9297    
 Max norm pressure P in all slices (Pa) =    374312.844    
 Time steps done =        10000  out of        20000
 Time steps remaining =        10000
 Estimated remaining time in seconds =    139.577286    
 Estimated remaining time in hh:mm:ss =      0 h 02 m 19 s
 Estimated total run time in seconds =    279.154572    
 Estimated total run time in hh:mm:ss =      0 h 04 m 39 s
 We have done    50.0000000     % of that
 The run will finish approximately on (in local time): Mon Jun 03, 2019 22:39


 Total number of time steps written:        10000
 Writing the seismograms in parallel took    6.92106009      seconds

 Time step #        10500
 Time:    88.9899979      seconds
 Elapsed time in seconds =    151.18844389915466     
 Elapsed time in hh:mm:ss =      0 h 02 m 31 s
 Mean elapsed time per time step in seconds =    1.43988999E-02
 Max norm displacement vector U in all slices (m) =    48330.1992    
 Max norm pressure P in all slices (Pa) =    396362.719    
 Time steps done =        10500  out of        20000
 Time steps remaining =         9500
 Estimated remaining time in seconds =    136.789551    
 Estimated remaining time in hh:mm:ss =      0 h 02 m 16 s
 Estimated total run time in seconds =    287.977997    
 Estimated total run time in hh:mm:ss =      0 h 04 m 47 s
 We have done    52.5000000     % of that
 The run will finish approximately on (in local time): Mon Jun 03, 2019 22:39

 Time step #        11000
 Time:    93.9899979      seconds
 Elapsed time in seconds =    155.73380994796753     
 Elapsed time in hh:mm:ss =      0 h 02 m 35 s
 Mean elapsed time per time step in seconds =    1.41576193E-02
 Max norm displacement vector U in all slices (m) =    48334.2969    
 Max norm pressure P in all slices (Pa) =    348387.500    
 Time steps done =        11000  out of        20000
 Time steps remaining =         9000
 Estimated remaining time in seconds =    127.418571    
 Estimated remaining time in hh:mm:ss =      0 h 02 m 07 s
 Estimated total run time in seconds =    283.152374    
 Estimated total run time in hh:mm:ss =      0 h 04 m 43 s
 We have done    55.0000000     % of that
 The run will finish approximately on (in local time): Mon Jun 03, 2019 22:39

 Time step #        11500
 Time:    98.9899979      seconds
 Elapsed time in seconds =    160.30944299697876     
 Elapsed time in hh:mm:ss =      0 h 02 m 40 s
 Mean elapsed time per time step in seconds =    1.39399515E-02
 Max norm displacement vector U in all slices (m) =    48337.8555    
 Max norm pressure P in all slices (Pa) =    359469.125    
 Time steps done =        11500  out of        20000
 Time steps remaining =         8500
 Estimated remaining time in seconds =    118.489586    
 Estimated remaining time in hh:mm:ss =      0 h 01 m 58 s
 Estimated total run time in seconds =    278.799042    
 Estimated total run time in hh:mm:ss =      0 h 04 m 38 s
 We have done    57.5000000     % of that
 The run will finish approximately on (in local time): Mon Jun 03, 2019 22:39

 Time step #        12000
 Time:    103.989998      seconds
 Elapsed time in seconds =    164.77584290504456     
 Elapsed time in hh:mm:ss =      0 h 02 m 44 s
 Mean elapsed time per time step in seconds =    1.37313204E-02
 Max norm displacement vector U in all slices (m) =    48341.1055    
 Max norm pressure P in all slices (Pa) =    402488.469    
 Time steps done =        12000  out of        20000
 Time steps remaining =         8000
 Estimated remaining time in seconds =    109.850563    
 Estimated remaining time in hh:mm:ss =      0 h 01 m 49 s
 Estimated total run time in seconds =    274.626404    
 Estimated total run time in hh:mm:ss =      0 h 04 m 34 s
 We have done    60.0000000     % of that
 The run will finish approximately on (in local time): Mon Jun 03, 2019 22:39

 Time step #        12500
 Time:    108.989998      seconds
 Elapsed time in seconds =    169.39491701126099     
 Elapsed time in hh:mm:ss =      0 h 02 m 49 s
 Mean elapsed time per time step in seconds =    1.35515938E-02
 Max norm displacement vector U in all slices (m) =    48344.1523    
 Max norm pressure P in all slices (Pa) =    399147.156    
 Time steps done =        12500  out of        20000
 Time steps remaining =         7500
 Estimated remaining time in seconds =    101.636948    
 Estimated remaining time in hh:mm:ss =      0 h 01 m 41 s
 Estimated total run time in seconds =    271.031860    
 Estimated total run time in hh:mm:ss =      0 h 04 m 31 s
 We have done    62.5000000     % of that
 The run will finish approximately on (in local time): Mon Jun 03, 2019 22:39

 Time step #        13000
 Time:    113.989998      seconds
 Elapsed time in seconds =    173.92308306694031     
 Elapsed time in hh:mm:ss =      0 h 02 m 53 s
 Mean elapsed time per time step in seconds =    1.33786984E-02
 Max norm displacement vector U in all slices (m) =    48347.4883    
 Max norm pressure P in all slices (Pa) =    488944.812    
 Time steps done =        13000  out of        20000
 Time steps remaining =         7000
 Estimated remaining time in seconds =    93.6508942    
 Estimated remaining time in hh:mm:ss =      0 h 01 m 33 s
 Estimated total run time in seconds =    267.573975    
 Estimated total run time in hh:mm:ss =      0 h 04 m 27 s
 We have done    65.0000000     % of that
 The run will finish approximately on (in local time): Mon Jun 03, 2019 22:39

 Time step #        13500
 Time:    118.989998      seconds
 Elapsed time in seconds =    178.58661794662476     
 Elapsed time in hh:mm:ss =      0 h 02 m 58 s
 Mean elapsed time per time step in seconds =    1.32286381E-02
 Max norm displacement vector U in all slices (m) =    48349.9336    
 Max norm pressure P in all slices (Pa) =    500221.750    
 Time steps done =        13500  out of        20000
 Time steps remaining =         6500
 Estimated remaining time in seconds =    85.9861526    
 Estimated remaining time in hh:mm:ss =      0 h 01 m 25 s
 Estimated total run time in seconds =    264.572754    
 Estimated total run time in hh:mm:ss =      0 h 04 m 24 s
 We have done    67.5000000     % of that
 The run will finish approximately on (in local time): Mon Jun 03, 2019 22:38

 Time step #        14000
 Time:    123.989998      seconds
 Elapsed time in seconds =    183.16946291923523     
 Elapsed time in hh:mm:ss =      0 h 03 m 03 s
 Mean elapsed time per time step in seconds =    1.30835334E-02
 Max norm displacement vector U in all slices (m) =    48352.3984    
 Max norm pressure P in all slices (Pa) =    522636.344    
 Time steps done =        14000  out of        20000
 Time steps remaining =         6000
 Estimated remaining time in seconds =    78.5011978    
 Estimated remaining time in hh:mm:ss =      0 h 01 m 18 s
 Estimated total run time in seconds =    261.670654    
 Estimated total run time in hh:mm:ss =      0 h 04 m 21 s
 We have done    70.0000000     % of that
 The run will finish approximately on (in local time): Mon Jun 03, 2019 22:38

 Time step #        14500
 Time:    128.990005      seconds
 Elapsed time in seconds =    187.91586303710938     
 Elapsed time in hh:mm:ss =      0 h 03 m 07 s
 Mean elapsed time per time step in seconds =    1.29597150E-02
 Max norm displacement vector U in all slices (m) =    48354.9766    
 Max norm pressure P in all slices (Pa) =    554518.000    
 Time steps done =        14500  out of        20000
 Time steps remaining =         5500
 Estimated remaining time in seconds =    71.2784271    
 Estimated remaining time in hh:mm:ss =      0 h 01 m 11 s
 Estimated total run time in seconds =    259.194305    
 Estimated total run time in hh:mm:ss =      0 h 04 m 19 s
 We have done    72.5000000     % of that
 The run will finish approximately on (in local time): Mon Jun 03, 2019 22:38

 Time step #        15000
 Time:    133.990005      seconds
 Elapsed time in seconds =    192.39927887916565     
 Elapsed time in hh:mm:ss =      0 h 03 m 12 s
 Mean elapsed time per time step in seconds =    1.28266187E-02
 Max norm displacement vector U in all slices (m) =    48356.1367    
 Max norm pressure P in all slices (Pa) =    510245.656    
 Time steps done =        15000  out of        20000
 Time steps remaining =         5000
 Estimated remaining time in seconds =    64.1330948    
 Estimated remaining time in hh:mm:ss =      0 h 01 m 04 s
 Estimated total run time in seconds =    256.532379    
 Estimated total run time in hh:mm:ss =      0 h 04 m 16 s
 We have done    75.0000000     % of that
 The run will finish approximately on (in local time): Mon Jun 03, 2019 22:39


 Total number of time steps written:        15000
 Writing the seismograms in parallel took    6.65182686      seconds

 Time step #        15500
 Time:    138.990005      seconds
 Elapsed time in seconds =    203.61453700065613     
 Elapsed time in hh:mm:ss =      0 h 03 m 23 s
 Mean elapsed time per time step in seconds =    1.31364213E-02
 Max norm displacement vector U in all slices (m) =    48358.0508    
 Max norm pressure P in all slices (Pa) =    397337.281    
 Time steps done =        15500  out of        20000
 Time steps remaining =         4500
 Estimated remaining time in seconds =    59.1138992    
 Estimated remaining time in hh:mm:ss =      0 h 00 m 59 s
 Estimated total run time in seconds =    262.728424    
 Estimated total run time in hh:mm:ss =      0 h 04 m 22 s
 We have done    77.5000000     % of that
 The run will finish approximately on (in local time): Mon Jun 03, 2019 22:39

 Time step #        16000
 Time:    143.990005      seconds
 Elapsed time in seconds =    208.07633209228516     
 Elapsed time in hh:mm:ss =      0 h 03 m 28 s
 Mean elapsed time per time step in seconds =    1.30047705E-02
 Max norm displacement vector U in all slices (m) =    48360.3164    
 Max norm pressure P in all slices (Pa) =    324455.000    
 Time steps done =        16000  out of        20000
 Time steps remaining =         4000
 Estimated remaining time in seconds =    52.0190811    
 Estimated remaining time in hh:mm:ss =      0 h 00 m 52 s
 Estimated total run time in seconds =    260.095428    
 Estimated total run time in hh:mm:ss =      0 h 04 m 20 s
 We have done    80.0000000     % of that
 The run will finish approximately on (in local time): Mon Jun 03, 2019 22:39

 Time step #        16500
 Time:    148.990005      seconds
 Elapsed time in seconds =    214.44196009635925     
 Elapsed time in hh:mm:ss =      0 h 03 m 34 s
 Mean elapsed time per time step in seconds =    1.29964827E-02
 Max norm displacement vector U in all slices (m) =    48362.9727    
 Max norm pressure P in all slices (Pa) =    344781.281    
 Time steps done =        16500  out of        20000
 Time steps remaining =         3500
 Estimated remaining time in seconds =    45.4876900    
 Estimated remaining time in hh:mm:ss =      0 h 00 m 45 s
 Estimated total run time in seconds =    259.929657    
 Estimated total run time in hh:mm:ss =      0 h 04 m 19 s
 We have done    82.5000000     % of that
 The run will finish approximately on (in local time): Mon Jun 03, 2019 22:39

 Time step #        17000
 Time:    153.990005      seconds
 Elapsed time in seconds =    218.86893987655640     
 Elapsed time in hh:mm:ss =      0 h 03 m 38 s
 Mean elapsed time per time step in seconds =    1.28746433E-02
 Max norm displacement vector U in all slices (m) =    48366.5469    
 Max norm pressure P in all slices (Pa) =    306182.219    
 Time steps done =        17000  out of        20000
 Time steps remaining =         3000
 Estimated remaining time in seconds =    38.6239319    
 Estimated remaining time in hh:mm:ss =      0 h 00 m 38 s
 Estimated total run time in seconds =    257.492859    
 Estimated total run time in hh:mm:ss =      0 h 04 m 17 s
 We have done    85.0000000     % of that
 The run will finish approximately on (in local time): Mon Jun 03, 2019 22:39

 Time step #        17500
 Time:    158.990005      seconds
 Elapsed time in seconds =    223.58055305480957     
 Elapsed time in hh:mm:ss =      0 h 03 m 43 s
 Mean elapsed time per time step in seconds =    1.27760312E-02
 Max norm displacement vector U in all slices (m) =    48369.8789    
 Max norm pressure P in all slices (Pa) =    288501.125    
 Time steps done =        17500  out of        20000
 Time steps remaining =         2500
 Estimated remaining time in seconds =    31.9400787    
 Estimated remaining time in hh:mm:ss =      0 h 00 m 31 s
 Estimated total run time in seconds =    255.520630    
 Estimated total run time in hh:mm:ss =      0 h 04 m 15 s
 We have done    87.5000000     % of that
 The run will finish approximately on (in local time): Mon Jun 03, 2019 22:39

 Time step #        18000
 Time:    163.990005      seconds
 Elapsed time in seconds =    228.05400705337524     
 Elapsed time in hh:mm:ss =      0 h 03 m 48 s
 Mean elapsed time per time step in seconds =    1.26696667E-02
 Max norm displacement vector U in all slices (m) =    48372.6641    
 Max norm pressure P in all slices (Pa) =    302179.594    
 Time steps done =        18000  out of        20000
 Time steps remaining =         2000
 Estimated remaining time in seconds =    25.3393345    
 Estimated remaining time in hh:mm:ss =      0 h 00 m 25 s
 Estimated total run time in seconds =    253.393341    
 Estimated total run time in hh:mm:ss =      0 h 04 m 13 s
 We have done    90.0000000     % of that
 The run will finish approximately on (in local time): Mon Jun 03, 2019 22:38

 Time step #        18500
 Time:    168.990005      seconds
 Elapsed time in seconds =    232.29023194313049     
 Elapsed time in hh:mm:ss =      0 h 03 m 52 s
 Mean elapsed time per time step in seconds =    1.25562288E-02
 Max norm displacement vector U in all slices (m) =    48375.7891    
 Max norm pressure P in all slices (Pa) =    282131.750    
 Time steps done =        18500  out of        20000
 Time steps remaining =         1500
 Estimated remaining time in seconds =    18.8343430    
 Estimated remaining time in hh:mm:ss =      0 h 00 m 18 s
 Estimated total run time in seconds =    251.124573    
 Estimated total run time in hh:mm:ss =      0 h 04 m 11 s
 We have done    92.5000000     % of that
 The run will finish approximately on (in local time): Mon Jun 03, 2019 22:38

 Time step #        19000
 Time:    173.990005      seconds
 Elapsed time in seconds =    236.78803491592407     
 Elapsed time in hh:mm:ss =      0 h 03 m 56 s
 Mean elapsed time per time step in seconds =    1.24625284E-02
 Max norm displacement vector U in all slices (m) =    48378.5117    
 Max norm pressure P in all slices (Pa) =    333991.625    
 Time steps done =        19000  out of        20000
 Time steps remaining =         1000
 Estimated remaining time in seconds =    12.4625282    
 Estimated remaining time in hh:mm:ss =      0 h 00 m 12 s
 Estimated total run time in seconds =    249.250565    
 Estimated total run time in hh:mm:ss =      0 h 04 m 09 s
 We have done    95.0000000     % of that
 The run will finish approximately on (in local time): Mon Jun 03, 2019 22:38

 Time step #        19500
 Time:    178.990005      seconds
 Elapsed time in seconds =    241.49270391464233     
 Elapsed time in hh:mm:ss =      0 h 04 m 01 s
 Mean elapsed time per time step in seconds =    1.23842414E-02
 Max norm displacement vector U in all slices (m) =    48379.8711    
 Max norm pressure P in all slices (Pa) =    382162.156    
 Time steps done =        19500  out of        20000
 Time steps remaining =          500
 Estimated remaining time in seconds =    6.19212055    
 Estimated remaining time in hh:mm:ss =      0 h 00 m 06 s
 Estimated total run time in seconds =    247.684830    
 Estimated total run time in hh:mm:ss =      0 h 04 m 07 s
 We have done    97.5000000     % of that
 The run will finish approximately on (in local time): Mon Jun 03, 2019 22:38

 Time step #        20000
 Time:    183.990005      seconds
 Elapsed time in seconds =    245.90931892395020     
 Elapsed time in hh:mm:ss =      0 h 04 m 05 s
 Mean elapsed time per time step in seconds =    1.22954659E-02
 Max norm displacement vector U in all slices (m) =    48380.2656    
 Max norm pressure P in all slices (Pa) =    428105.156    
 Time steps done =        20000  out of        20000
 Time steps remaining =            0
 Estimated remaining time in seconds =    0.00000000    
 Estimated remaining time in hh:mm:ss =      0 h 00 m 00 s
 Estimated total run time in seconds =    245.909317    
 Estimated total run time in hh:mm:ss =      0 h 04 m 05 s
 We have done    100.000000     % of that


 Total number of time steps written:        20000
 Writing the seismograms in parallel took    7.14690208      seconds

 Time-Loop Complete. Timing info:
 Total elapsed time in seconds =    253.47045087814331     
 Total elapsed time in hh:mm:ss =      0 h 04 m 13 s

 End of the simulation

