
 **********************************************
 **** Specfem 3-D Solver - MPI version f90 ****
 **********************************************

 Running Git package version of the code: v2.0.2-2895-g054928d
 which is Git commit 054928d5f5b89d476fc569b743e9ad7facab9c11
 dating From Date:   Wed May 22 13:39:03 2019 -0600


 There are           32  MPI processes
 Processes are numbered from 0 to           31

 There is a total of           32  slices

  NDIM =            3

  NGLLX =            5
  NGLLY =            5
  NGLLZ =            5

 using single precision for the calculations

 smallest and largest possible floating-point numbers are:    1.17549435E-38   3.40282347E+38

 velocity model:   default 

 total acoustic elements    :       10000
 total elastic elements     :        5000
 total poroelastic elements :           0

 ********
 minimum and maximum number of elements
 and points in the CUBIT + SCOTCH mesh:

 NSPEC_global_min =          445
 NSPEC_global_max =          492
 NSPEC_global_max / NSPEC_global_min imbalance =    1.10561800      =    10.5617981      %
 NSPEC_global_sum =        15000

 NGLOB_global_min =        32133
 NGLOB_global_max =        35541
 NGLOB_global_max / NGLOB_global_min imbalance =    1.10605919      =    10.6059189      %
 NGLOB_global_sum =      1069844

 If you have elements of a single type (all acoustic, all elastic, all poroelastic, and without CPML)
 in the whole mesh, then there should be no significant imbalance in the above numbers.
 Otherwise, it is normal to have imbalance in elements and points because the domain decomposer
 compensates for the different cost of different elements by partitioning them unevenly among processes.
 ********


 ********
 Model: P velocity min,max =    330.000031       7500.00000    
 Model: S velocity min,max =    0.00000000       4300.00000    

 Model: Poisson's ratio min,max =   0.255164206      0.500000000    
 ********

 *********************************************
 *** Verification of simulation parameters ***
 *********************************************

 *** Xmin and Xmax of the model =   -25000.0000       25000.0000    
 *** Ymin and Ymax of the model =   -25000.0000       25000.0000    
 *** Zmin and Zmax of the model =   -17000.0000       30000.0000    

 *** Max GLL point distance =    654.654297    
 *** Min GLL point distance =    323.761719    
 *** Max/min ratio =    2.02202511    

 *** Max element size =    2000.00000    
 *** Min element size =    1875.00000    
 *** Max/min ratio =    1.06666672    

 *** Minimum period resolved =    7.57575703    
 *** Maximum suggested time step =    2.15841141E-02

 *** for DT :    1.0000000000000000E-002
 *** Max stability for wave velocities =   0.231651843    

 Elapsed time for checking mesh resolution in seconds =    1.4278888702392578E-003
 saving VTK files for Courant number and minimum period

 ******************************************
 There is a total of           32  slices
 ******************************************


 kd-tree:
   total data points:          490
   theoretical   number of nodes:          974
                tree memory size:    2.97241211E-02 MB
   actual        number of nodes:          979
                tree memory size:    2.98767090E-02 MB
   maximum depth   :           10
   creation timing :    0.00000000     (s)


 sources:           1

 ********************
  locating sources
 ********************

 reading source information from ./DATA/CMTSOLUTION file

 no UTM projection

 source #            1
   source located in slice           10
                  in element          302
                  in elastic domain

   using moment tensor source: 
     xi coordinate of source in that element:  -0.33333333333333298     
     eta coordinate of source in that element:    0.0000000000000000     
     gamma coordinate of source in that element:    0.0000000000000000     

   source time function:
     using Gaussian source time function
     half duration:    8.0000000000000000       seconds
     time shift:    0.0000000000000000       seconds

   magnitude of the source:
        scalar moment M0 =    1.6844703915474442E+028  dyne-cm
     moment magnitude Mw =    8.1176424451728337     

   original (requested) position of the source:

             latitude:    0.0000000000000000     
            longitude:    0.0000000000000000     

                x:    0.0000000000000000     
                y:    0.0000000000000000     
           depth:    12000.000000000000       m

   position of the source that will be used:

                x:    0.0000000000000000     
                y:    0.0000000000000000     
            depth:    12.000000000000000       km
                z:   -12000.000000000000     

   error in location of the source:    0.00000000      m



 maximum error in location of the sources:    0.00000000      m


 Elapsed time for detection of sources in seconds =    2.3377895355224609E-002

 End of source detection - done


 printing the source-time function

 receivers:

 there are          306  stations in file ./DATA/STATIONS
 saving          305  stations inside the model in file ./DATA/STATIONS_FILTERED
 excluding            1  stations located outside the model


 Total number of receivers =          305


 ********************
  locating receivers
 ********************

 reading receiver information from ./DATA/STATIONS_FILTERED file


 station #            1     DB    S01
      original latitude:    0.00000000    
      original longitude:    0.00000000    
      original x:    0.00000000    
      original y:    0.00000000    
      original depth:   -0.00000000      m
      horizontal distance km:    0.00000000    
      target x, y, z:    0.00000000       0.00000000       0.00000000    
      closest estimate found:    0.00000000      m away

      receiver located in slice           23
                       in element          168
                       in acoustic domain
      at coordinates: 
      xi    =   -1.0000000000000000     
      eta   =    0.0000000000000000     
      gamma =    0.0000000000000000     
      rotation matrix: 
      nu1 =    1.00000000       0.00000000       0.00000000    
      nu2 =    0.00000000       1.00000000       0.00000000    
      nu3 =    0.00000000       0.00000000       1.00000000    
      x:    0.0000000000000000     
      y:    0.0000000000000000     
      depth:    0.0000000000000000       m
      z:    0.0000000000000000     



 station #            2     DB    S02
      original latitude:    820.534973    
      original longitude:   -2045.40002    
      original x:   -2045.40002    
      original y:    820.534973    
      original depth:   -0.00000000      m
      horizontal distance km:    2.20384645    
      target x, y, z:   -2045.40002       820.534973       0.00000000    
      closest estimate found:    0.00000000      m away

      receiver located in slice           23
                       in element          155
                       in acoustic domain
      at coordinates: 
      xi    =   -1.0000000000000000     
      eta   =   0.82053499999999990     
      gamma =   -4.5400000000000093E-002
      rotation matrix: 
      nu1 =    1.00000000       0.00000000       0.00000000    
      nu2 =    0.00000000       1.00000000       0.00000000    
      nu3 =    0.00000000       0.00000000       1.00000000    
      x:   -2045.4000000000001     
      y:    820.53499999999997     
      depth:    0.0000000000000000       m
      z:    0.0000000000000000     



 station #            3     DB    S03
      original latitude:    1651.95996    
      original longitude:   -4091.00000    
      original x:   -4091.00000    
      original y:    1651.95996    
      original depth:   -0.00000000      m
      horizontal distance km:    4.41194439    
      target x, y, z:   -4091.00000       1651.95996       0.00000000    
      closest estimate found:    4.54747351E-13  m away

      receiver located in slice           23
                       in element          143
                       in acoustic domain
      at coordinates: 
      xi    =   -1.0000000000000000     
      eta   =  -0.34803999999999996     
      gamma =   -9.0999999999999998E-002
      rotation matrix: 
      nu1 =    1.00000000       0.00000000       0.00000000    
      nu2 =    0.00000000       1.00000000       0.00000000    
      nu3 =    0.00000000       0.00000000       1.00000000    
      x:   -4091.0000000000005     
      y:    1651.9600000000000     
      depth:    0.0000000000000000       m
      z:    0.0000000000000000     



 station #            4     DB    S04
      original latitude:    2471.65991    
      original longitude:   -6244.16992    
      original x:   -6244.16992    
      original y:    2471.65991    
      original depth:   -0.00000000      m
      horizontal distance km:    6.71556139    
      target x, y, z:   -6244.16992       2471.65991       0.00000000    
      closest estimate found:    0.00000000      m away

      receiver located in slice           23
                       in element          131
                       in acoustic domain
      at coordinates: 
      xi    =   -1.0000000000000000     
      eta   =   0.47165999999999975     
      gamma =  -0.24416999999999997     
      rotation matrix: 
      nu1 =    1.00000000       0.00000000       0.00000000    
      nu2 =    0.00000000       1.00000000       0.00000000    
      nu3 =    0.00000000       0.00000000       1.00000000    
      x:   -6244.1700000000001     
      y:    2471.6599999999999     
      depth:    0.0000000000000000       m
      z:    0.0000000000000000     



 station #            5     DB    S05
      original latitude:    3302.73999    
      original longitude:   -8290.08984    
      original x:   -8290.08984    
      original y:    3302.73999    
      original depth:   -0.00000000      m
      horizontal distance km:    8.92377090    
      target x, y, z:   -8290.08984       3302.73999       0.00000000    
      closest estimate found:    0.00000000      m away

      receiver located in slice           23
                       in element          120
                       in acoustic domain
      at coordinates: 
      xi    =   -1.0000000000000000     
      eta   =  -0.69726000000000021     
      gamma =  -0.29009000000000029     
      rotation matrix: 
      nu1 =    1.00000000       0.00000000       0.00000000    
      nu2 =    0.00000000       1.00000000       0.00000000    
      nu3 =    0.00000000       0.00000000       1.00000000    
      x:   -8290.0900000000001     
      y:    3302.7399999999998     
      depth:    0.0000000000000000       m
      z:    0.0000000000000000     



 station #            6     DB    S06
      original latitude:    4122.58984    
      original longitude:   -10336.0996    
      original x:   -10336.0996    
      original y:    4122.58984    
      original depth:   -0.00000000      m
      horizontal distance km:    11.1279249    
      target x, y, z:   -10336.0996       4122.58984       0.00000000    
      closest estimate found:    0.00000000      m away

      receiver located in slice           23
                       in element          108
                       in acoustic domain
      at coordinates: 
      xi    =   -1.0000000000000000     
      eta   =   0.12259000000000014     
      gamma =  -0.33609999999999990     
      rotation matrix: 
      nu1 =    1.00000000       0.00000000       0.00000000    
      nu2 =    0.00000000       1.00000000       0.00000000    
      nu3 =    0.00000000       0.00000000       1.00000000    
      x:   -10336.100000000000     
      y:    4122.5900000000001     
      depth:    0.0000000000000000       m
      z:    0.0000000000000000     



 station #            7     DB    S07
      original latitude:    4953.33008    
      original longitude:   -12382.2998    
      original x:   -12382.2998    
      original y:    4953.33008    
      original depth:   -0.00000000      m
      horizontal distance km:    13.3362980    
      target x, y, z:   -12382.2998       4953.33008       0.00000000    
      closest estimate found:    3.63797881E-12  m away

      receiver located in slice           23
                       in element          106
                       in acoustic domain
      at coordinates: 
      xi    =   -1.0000000000000000     
      eta   =   0.95332999999999990     
      gamma =  -0.38229999999999698     
      rotation matrix: 
      nu1 =    1.00000000       0.00000000       0.00000000    
      nu2 =    0.00000000       1.00000000       0.00000000    
      nu3 =    0.00000000       0.00000000       1.00000000    
      x:   -12382.299999999996     
      y:    4953.3299999999999     
      depth:    0.0000000000000000       m
      z:    0.0000000000000000     



 station #            8     DB    S08
      original latitude:    5772.85010    
      original longitude:   -14428.5996    
      original x:   -14428.5996    
      original y:    5772.85010    
      original depth:   -0.00000000      m
      horizontal distance km:    15.5406017    
      target x, y, z:   -14428.5996       5772.85010       0.00000000    
      closest estimate found:    0.00000000      m away

      receiver located in slice           21
                       in element          175
                       in acoustic domain
      at coordinates: 
      xi    =   -1.0000000000000000     
      eta   =  -0.22714999999999960     
      gamma =  -0.42860000000000170     
      rotation matrix: 
      nu1 =    1.00000000       0.00000000       0.00000000    
      nu2 =    0.00000000       1.00000000       0.00000000    
      nu3 =    0.00000000       0.00000000       1.00000000    
      x:   -14428.600000000000     
      y:    5772.8500000000004     
      depth:    0.0000000000000000       m
      z:    0.0000000000000000     



 station #            9     DB    S09
      original latitude:    6603.25977    
      original longitude:   -16475.1992    
      original x:   -16475.1992    
      original y:    6603.25977    
      original depth:   -0.00000000      m
      horizontal distance km:    17.7492332    
      target x, y, z:   -16475.1992       6603.25977       0.00000000    
      closest estimate found:    0.00000000      m away

      receiver located in slice           21
                       in element          164
                       in acoustic domain
      at coordinates: 
      xi    =   -1.0000000000000000     
      eta   =   0.60326000000000068     
      gamma =  -0.47520000000000212     
      rotation matrix: 
      nu1 =    1.00000000       0.00000000       0.00000000    
      nu2 =    0.00000000       1.00000000       0.00000000    
      nu3 =    0.00000000       0.00000000       1.00000000    
      x:   -16475.200000000001     
      y:    6603.2600000000002     
      depth:    0.0000000000000000       m
      z:    0.0000000000000000     



 station #           10     DB    S10
      original latitude:    7421.87988    
      original longitude:   -18629.3008    
      original x:   -18629.3008    
      original y:    7421.87988    
      original depth:   -0.00000000      m
      horizontal distance km:    20.0533066    
      target x, y, z:   -18629.3008       7421.87988       0.00000000    
      closest estimate found:    0.00000000      m away

      receiver located in slice           21
                       in element          154
                       in acoustic domain
      at coordinates: 
      xi    =   -1.0000000000000000     
      eta   =  -0.57812000000000030     
      gamma =  -0.62929999999999697     
      rotation matrix: 
      nu1 =    1.00000000       0.00000000       0.00000000    
      nu2 =    0.00000000       1.00000000       0.00000000    
      nu3 =    0.00000000       0.00000000       1.00000000    
      x:   -18629.299999999999     
      y:    7421.8800000000001     
      depth:    0.0000000000000000       m
      z:    0.0000000000000000     



 station #           11     DB    S11
      original latitude:    8251.95020    
      original longitude:   -20676.0996    
      original x:   -20676.0996    
      original y:    8251.95020    
      original depth:   -0.00000000      m
      horizontal distance km:    22.2619801    
      target x, y, z:   -20676.0996       8251.95020       0.00000000    
      closest estimate found:    0.00000000      m away

      receiver located in slice           21
                       in element          143
                       in acoustic domain
      at coordinates: 
      xi    =   -1.0000000000000000     
      eta   =   0.25195000000000078     
      gamma =  -0.67609999999999626     
      rotation matrix: 
      nu1 =    1.00000000       0.00000000       0.00000000    
      nu2 =    0.00000000       1.00000000       0.00000000    
      nu3 =    0.00000000       0.00000000       1.00000000    
      x:   -20676.099999999999     
      y:    8251.9500000000007     
      depth:    0.0000000000000000       m
      z:    0.0000000000000000     



 station #           12     DB    S12
      original latitude:    9070.79004    
      original longitude:   -22723.0996    
      original x:   -22723.0996    
      original y:    9070.79004    
      original depth:   -0.00000000      m
      horizontal distance km:    24.4666824    
      target x, y, z:   -22723.0996       9070.79004       0.00000000    
      closest estimate found:    1.81898940E-12  m away

      receiver located in slice           21
                       in element          133
                       in acoustic domain
      at coordinates: 
      xi    =   -1.0000000000000000     
      eta   =  -0.92920999999999732     
      gamma =  -0.72309999999999997     
      rotation matrix: 
      nu1 =    1.00000000       0.00000000       0.00000000    
      nu2 =    0.00000000       1.00000000       0.00000000    
      nu3 =    0.00000000       0.00000000       1.00000000    
      x:   -22723.099999999999     
      y:    9070.7900000000027     
      depth:    0.0000000000000000       m
      z:    0.0000000000000000     



 station #           13     DB    S13
      original latitude:    9900.51953    
      original longitude:   -24770.1992    
      original x:   -24770.1992    
      original y:    9900.51953    
      original depth:   -0.00000000      m
      horizontal distance km:    26.6755142    
      target x, y, z:   -24770.1992       9900.51953       0.00000000    
      closest estimate found:    0.00000000      m away

      receiver located in slice           21
                       in element          210
                       in acoustic domain
      at coordinates: 
      xi    =    1.0000000000000000     
      eta   =   -9.9479999999999569E-002
      gamma =  -0.77020000000000077     
      rotation matrix: 
      nu1 =    1.00000000       0.00000000       0.00000000    
      nu2 =    0.00000000       1.00000000       0.00000000    
      nu3 =    0.00000000       0.00000000       1.00000000    
      x:   -24770.200000000001     
      y:    9900.5200000000004     
      depth:    0.0000000000000000       m
      z:    0.0000000000000000     



 station #           14     DB    L01
      original latitude:    0.00000000    
      original longitude:    0.00000000    
      original x:    0.00000000    
      original y:    0.00000000    
      original depth:   -0.00000000      m
      horizontal distance km:    0.00000000    
      target x, y, z:    0.00000000       0.00000000       0.00000000    
      closest estimate found:    0.00000000      m away

      receiver located in slice           23
                       in element          168
                       in acoustic domain
      at coordinates: 
      xi    =   -1.0000000000000000     
      eta   =    0.0000000000000000     
      gamma =    0.0000000000000000     
      rotation matrix: 
      nu1 =    1.00000000       0.00000000       0.00000000    
      nu2 =    0.00000000       1.00000000       0.00000000    
      nu3 =    0.00000000       0.00000000       1.00000000    
      x:    0.0000000000000000     
      y:    0.0000000000000000     
      depth:    0.0000000000000000       m
      z:    0.0000000000000000     



 station #           15     DB    L02
      original latitude:    820.534973    
      original longitude:   -2045.40002    
      original x:   -2045.40002    
      original y:    820.534973    
      original depth:   -0.00000000      m
      horizontal distance km:    2.20384645    
      target x, y, z:   -2045.40002       820.534973       0.00000000    
      closest estimate found:    0.00000000      m away

      receiver located in slice           23
                       in element          155
                       in acoustic domain
      at coordinates: 
      xi    =   -1.0000000000000000     
      eta   =   0.82053499999999990     
      gamma =   -4.5400000000000093E-002
      rotation matrix: 
      nu1 =    1.00000000       0.00000000       0.00000000    
      nu2 =    0.00000000       1.00000000       0.00000000    
      nu3 =    0.00000000       0.00000000       1.00000000    
      x:   -2045.4000000000001     
      y:    820.53499999999997     
      depth:    0.0000000000000000       m
      z:    0.0000000000000000     



 station #           16     DB    L03
      original latitude:    1651.95996    
      original longitude:   -4091.00000    
      original x:   -4091.00000    
      original y:    1651.95996    
      original depth:   -0.00000000      m
      horizontal distance km:    4.41194439    
      target x, y, z:   -4091.00000       1651.95996       0.00000000    
      closest estimate found:    4.54747351E-13  m away

      receiver located in slice           23
                       in element          143
                       in acoustic domain
      at coordinates: 
      xi    =   -1.0000000000000000     
      eta   =  -0.34803999999999996     
      gamma =   -9.0999999999999998E-002
      rotation matrix: 
      nu1 =    1.00000000       0.00000000       0.00000000    
      nu2 =    0.00000000       1.00000000       0.00000000    
      nu3 =    0.00000000       0.00000000       1.00000000    
      x:   -4091.0000000000005     
      y:    1651.9600000000000     
      depth:    0.0000000000000000       m
      z:    0.0000000000000000     



 station #           17     DB    L04
      original latitude:    2471.65991    
      original longitude:   -6244.16992    
      original x:   -6244.16992    
      original y:    2471.65991    
      original depth:   -0.00000000      m
      horizontal distance km:    6.71556139    
      target x, y, z:   -6244.16992       2471.65991       0.00000000    
      closest estimate found:    0.00000000      m away

      receiver located in slice           23
                       in element          131
                       in acoustic domain
      at coordinates: 
      xi    =   -1.0000000000000000     
      eta   =   0.47165999999999975     
      gamma =  -0.24416999999999997     
      rotation matrix: 
      nu1 =    1.00000000       0.00000000       0.00000000    
      nu2 =    0.00000000       1.00000000       0.00000000    
      nu3 =    0.00000000       0.00000000       1.00000000    
      x:   -6244.1700000000001     
      y:    2471.6599999999999     
      depth:    0.0000000000000000       m
      z:    0.0000000000000000     



 station #           18     DB    L05
      original latitude:    3302.73999    
      original longitude:   -8290.08984    
      original x:   -8290.08984    
      original y:    3302.73999    
      original depth:   -0.00000000      m
      horizontal distance km:    8.92377090    
      target x, y, z:   -8290.08984       3302.73999       0.00000000    
      closest estimate found:    0.00000000      m away

      receiver located in slice           23
                       in element          120
                       in acoustic domain
      at coordinates: 
      xi    =   -1.0000000000000000     
      eta   =  -0.69726000000000021     
      gamma =  -0.29009000000000029     
      rotation matrix: 
      nu1 =    1.00000000       0.00000000       0.00000000    
      nu2 =    0.00000000       1.00000000       0.00000000    
      nu3 =    0.00000000       0.00000000       1.00000000    
      x:   -8290.0900000000001     
      y:    3302.7399999999998     
      depth:    0.0000000000000000       m
      z:    0.0000000000000000     



 station #           19     DB    L06
      original latitude:    4122.58984    
      original longitude:   -10336.0996    
      original x:   -10336.0996    
      original y:    4122.58984    
      original depth:   -0.00000000      m
      horizontal distance km:    11.1279249    
      target x, y, z:   -10336.0996       4122.58984       0.00000000    
      closest estimate found:    0.00000000      m away

      receiver located in slice           23
                       in element          108
                       in acoustic domain
      at coordinates: 
      xi    =   -1.0000000000000000     
      eta   =   0.12259000000000014     
      gamma =  -0.33609999999999990     
      rotation matrix: 
      nu1 =    1.00000000       0.00000000       0.00000000    
      nu2 =    0.00000000       1.00000000       0.00000000    
      nu3 =    0.00000000       0.00000000       1.00000000    
      x:   -10336.100000000000     
      y:    4122.5900000000001     
      depth:    0.0000000000000000       m
      z:    0.0000000000000000     



 station #           20     DB    L07
      original latitude:    4953.33008    
      original longitude:   -12382.2998    
      original x:   -12382.2998    
      original y:    4953.33008    
      original depth:   -0.00000000      m
      horizontal distance km:    13.3362980    
      target x, y, z:   -12382.2998       4953.33008       0.00000000    
      closest estimate found:    3.63797881E-12  m away

      receiver located in slice           23
                       in element          106
                       in acoustic domain
      at coordinates: 
      xi    =   -1.0000000000000000     
      eta   =   0.95332999999999990     
      gamma =  -0.38229999999999698     
      rotation matrix: 
      nu1 =    1.00000000       0.00000000       0.00000000    
      nu2 =    0.00000000       1.00000000       0.00000000    
      nu3 =    0.00000000       0.00000000       1.00000000    
      x:   -12382.299999999996     
      y:    4953.3299999999999     
      depth:    0.0000000000000000       m
      z:    0.0000000000000000     



 station #           21     DB    L08
      original latitude:    5772.85010    
      original longitude:   -14428.5996    
      original x:   -14428.5996    
      original y:    5772.85010    
      original depth:   -0.00000000      m
      horizontal distance km:    15.5406017    
      target x, y, z:   -14428.5996       5772.85010       0.00000000    
      closest estimate found:    0.00000000      m away

      receiver located in slice           21
                       in element          175
                       in acoustic domain
      at coordinates: 
      xi    =   -1.0000000000000000     
      eta   =  -0.22714999999999960     
      gamma =  -0.42860000000000170     
      rotation matrix: 
      nu1 =    1.00000000       0.00000000       0.00000000    
      nu2 =    0.00000000       1.00000000       0.00000000    
      nu3 =    0.00000000       0.00000000       1.00000000    
      x:   -14428.600000000000     
      y:    5772.8500000000004     
      depth:    0.0000000000000000       m
      z:    0.0000000000000000     



 station #           22     DB    L09
      original latitude:    6603.25977    
      original longitude:   -16475.1992    
      original x:   -16475.1992    
      original y:    6603.25977    
      original depth:   -0.00000000      m
      horizontal distance km:    17.7492332    
      target x, y, z:   -16475.1992       6603.25977       0.00000000    
      closest estimate found:    0.00000000      m away

      receiver located in slice           21
                       in element          164
                       in acoustic domain
      at coordinates: 
      xi    =   -1.0000000000000000     
      eta   =   0.60326000000000068     
      gamma =  -0.47520000000000212     
      rotation matrix: 
      nu1 =    1.00000000       0.00000000       0.00000000    
      nu2 =    0.00000000       1.00000000       0.00000000    
      nu3 =    0.00000000       0.00000000       1.00000000    
      x:   -16475.200000000001     
      y:    6603.2600000000002     
      depth:    0.0000000000000000       m
      z:    0.0000000000000000     



 station #           23     DB    L10
      original latitude:    7421.87988    
      original longitude:   -18629.3008    
      original x:   -18629.3008    
      original y:    7421.87988    
      original depth:   -0.00000000      m
      horizontal distance km:    20.0533066    
      target x, y, z:   -18629.3008       7421.87988       0.00000000    
      closest estimate found:    0.00000000      m away

      receiver located in slice           21
                       in element          154
                       in acoustic domain
      at coordinates: 
      xi    =   -1.0000000000000000     
      eta   =  -0.57812000000000030     
      gamma =  -0.62929999999999697     
      rotation matrix: 
      nu1 =    1.00000000       0.00000000       0.00000000    
      nu2 =    0.00000000       1.00000000       0.00000000    
      nu3 =    0.00000000       0.00000000       1.00000000    
      x:   -18629.299999999999     
      y:    7421.8800000000001     
      depth:    0.0000000000000000       m
      z:    0.0000000000000000     



 station #           24     DB    L11
      original latitude:    8251.95020    
      original longitude:   -20676.0996    
      original x:   -20676.0996    
      original y:    8251.95020    
      original depth:   -0.00000000      m
      horizontal distance km:    22.2619801    
      target x, y, z:   -20676.0996       8251.95020       0.00000000    
      closest estimate found:    0.00000000      m away

      receiver located in slice           21
                       in element          143
                       in acoustic domain
      at coordinates: 
      xi    =   -1.0000000000000000     
      eta   =   0.25195000000000078     
      gamma =  -0.67609999999999626     
      rotation matrix: 
      nu1 =    1.00000000       0.00000000       0.00000000    
      nu2 =    0.00000000       1.00000000       0.00000000    
      nu3 =    0.00000000       0.00000000       1.00000000    
      x:   -20676.099999999999     
      y:    8251.9500000000007     
      depth:    0.0000000000000000       m
      z:    0.0000000000000000     



 station #           25     DB    L12
      original latitude:    9070.79004    
      original longitude:   -22723.0996    
      original x:   -22723.0996    
      original y:    9070.79004    
      original depth:   -0.00000000      m
      horizontal distance km:    24.4666824    
      target x, y, z:   -22723.0996       9070.79004       0.00000000    
      closest estimate found:    1.81898940E-12  m away

      receiver located in slice           21
                       in element          133
                       in acoustic domain
      at coordinates: 
      xi    =   -1.0000000000000000     
      eta   =  -0.92920999999999732     
      gamma =  -0.72309999999999997     
      rotation matrix: 
      nu1 =    1.00000000       0.00000000       0.00000000    
      nu2 =    0.00000000       1.00000000       0.00000000    
      nu3 =    0.00000000       0.00000000       1.00000000    
      x:   -22723.099999999999     
      y:    9070.7900000000027     
      depth:    0.0000000000000000       m
      z:    0.0000000000000000     



 station #           26     DB    L13
      original latitude:    9900.51953    
      original longitude:   -24770.1992    
      original x:   -24770.1992    
      original y:    9900.51953    
      original depth:   -0.00000000      m
      horizontal distance km:    26.6755142    
      target x, y, z:   -24770.1992       9900.51953       0.00000000    
      closest estimate found:    0.00000000      m away

      receiver located in slice           21
                       in element          210
                       in acoustic domain
      at coordinates: 
      xi    =    1.0000000000000000     
      eta   =   -9.9479999999999569E-002
      gamma =  -0.77020000000000077     
      rotation matrix: 
      nu1 =    1.00000000       0.00000000       0.00000000    
      nu2 =    0.00000000       1.00000000       0.00000000    
      nu3 =    0.00000000       0.00000000       1.00000000    
      x:   -24770.200000000001     
      y:    9900.5200000000004     
      depth:    0.0000000000000000       m
      z:    0.0000000000000000     



 station #           27     DB    M01
      original latitude:    0.00000000    
      original longitude:    0.00000000    
      original x:    0.00000000    
      original y:    0.00000000    
      original depth:   -0.00000000      m
      horizontal distance km:    0.00000000    
      target x, y, z:    0.00000000       0.00000000       0.00000000    
      closest estimate found:    0.00000000      m away

      receiver located in slice           23
                       in element          168
                       in acoustic domain
      at coordinates: 
      xi    =   -1.0000000000000000     
      eta   =    0.0000000000000000     
      gamma =    0.0000000000000000     
      rotation matrix: 
      nu1 =    1.00000000       0.00000000       0.00000000    
      nu2 =    0.00000000       1.00000000       0.00000000    
      nu3 =    0.00000000       0.00000000       1.00000000    
      x:    0.0000000000000000     
      y:    0.0000000000000000     
      depth:    0.0000000000000000       m
      z:    0.0000000000000000     



 station #           28     DB    M02
      original latitude:    820.534973    
      original longitude:   -2045.40002    
      original x:   -2045.40002    
      original y:    820.534973    
      original depth:   -0.00000000      m
      horizontal distance km:    2.20384645    
      target x, y, z:   -2045.40002       820.534973       0.00000000    
      closest estimate found:    0.00000000      m away

      receiver located in slice           23
                       in element          155
                       in acoustic domain
      at coordinates: 
      xi    =   -1.0000000000000000     
      eta   =   0.82053499999999990     
      gamma =   -4.5400000000000093E-002
      rotation matrix: 
      nu1 =    1.00000000       0.00000000       0.00000000    
      nu2 =    0.00000000       1.00000000       0.00000000    
      nu3 =    0.00000000       0.00000000       1.00000000    
      x:   -2045.4000000000001     
      y:    820.53499999999997     
      depth:    0.0000000000000000       m
      z:    0.0000000000000000     



 station #           29     DB    M03
      original latitude:    1651.95996    
      original longitude:   -4091.00000    
      original x:   -4091.00000    
      original y:    1651.95996    
      original depth:   -0.00000000      m
      horizontal distance km:    4.41194439    
      target x, y, z:   -4091.00000       1651.95996       0.00000000    
      closest estimate found:    4.54747351E-13  m away

      receiver located in slice           23
                       in element          143
                       in acoustic domain
      at coordinates: 
      xi    =   -1.0000000000000000     
      eta   =  -0.34803999999999996     
      gamma =   -9.0999999999999998E-002
      rotation matrix: 
      nu1 =    1.00000000       0.00000000       0.00000000    
      nu2 =    0.00000000       1.00000000       0.00000000    
      nu3 =    0.00000000       0.00000000       1.00000000    
      x:   -4091.0000000000005     
      y:    1651.9600000000000     
      depth:    0.0000000000000000       m
      z:    0.0000000000000000     



 station #           30     DB    M04
      original latitude:    2471.65991    
      original longitude:   -6244.16992    
      original x:   -6244.16992    
      original y:    2471.65991    
      original depth:   -0.00000000      m
      horizontal distance km:    6.71556139    
      target x, y, z:   -6244.16992       2471.65991       0.00000000    
      closest estimate found:    0.00000000      m away

      receiver located in slice           23
                       in element          131
                       in acoustic domain
      at coordinates: 
      xi    =   -1.0000000000000000     
      eta   =   0.47165999999999975     
      gamma =  -0.24416999999999997     
      rotation matrix: 
      nu1 =    1.00000000       0.00000000       0.00000000    
      nu2 =    0.00000000       1.00000000       0.00000000    
      nu3 =    0.00000000       0.00000000       1.00000000    
      x:   -6244.1700000000001     
      y:    2471.6599999999999     
      depth:    0.0000000000000000       m
      z:    0.0000000000000000     



 station #           31     DB    M05
      original latitude:    3302.73999    
      original longitude:   -8290.08984    
      original x:   -8290.08984    
      original y:    3302.73999    
      original depth:   -0.00000000      m
      horizontal distance km:    8.92377090    
      target x, y, z:   -8290.08984       3302.73999       0.00000000    
      closest estimate found:    0.00000000      m away

      receiver located in slice           23
                       in element          120
                       in acoustic domain
      at coordinates: 
      xi    =   -1.0000000000000000     
      eta   =  -0.69726000000000021     
      gamma =  -0.29009000000000029     
      rotation matrix: 
      nu1 =    1.00000000       0.00000000       0.00000000    
      nu2 =    0.00000000       1.00000000       0.00000000    
      nu3 =    0.00000000       0.00000000       1.00000000    
      x:   -8290.0900000000001     
      y:    3302.7399999999998     
      depth:    0.0000000000000000       m
      z:    0.0000000000000000     



 station #           32     DB    M06
      original latitude:    4122.58984    
      original longitude:   -10336.0996    
      original x:   -10336.0996    
      original y:    4122.58984    
      original depth:   -0.00000000      m
      horizontal distance km:    11.1279249    
      target x, y, z:   -10336.0996       4122.58984       0.00000000    
      closest estimate found:    0.00000000      m away

      receiver located in slice           23
                       in element          108
                       in acoustic domain
      at coordinates: 
      xi    =   -1.0000000000000000     
      eta   =   0.12259000000000014     
      gamma =  -0.33609999999999990     
      rotation matrix: 
      nu1 =    1.00000000       0.00000000       0.00000000    
      nu2 =    0.00000000       1.00000000       0.00000000    
      nu3 =    0.00000000       0.00000000       1.00000000    
      x:   -10336.100000000000     
      y:    4122.5900000000001     
      depth:    0.0000000000000000       m
      z:    0.0000000000000000     



 station #           33     DB    M07
      original latitude:    4953.33008    
      original longitude:   -12382.2998    
      original x:   -12382.2998    
      original y:    4953.33008    
      original depth:   -0.00000000      m
      horizontal distance km:    13.3362980    
      target x, y, z:   -12382.2998       4953.33008       0.00000000    
      closest estimate found:    3.63797881E-12  m away

      receiver located in slice           23
                       in element          106
                       in acoustic domain
      at coordinates: 
      xi    =   -1.0000000000000000     
      eta   =   0.95332999999999990     
      gamma =  -0.38229999999999698     
      rotation matrix: 
      nu1 =    1.00000000       0.00000000       0.00000000    
      nu2 =    0.00000000       1.00000000       0.00000000    
      nu3 =    0.00000000       0.00000000       1.00000000    
      x:   -12382.299999999996     
      y:    4953.3299999999999     
      depth:    0.0000000000000000       m
      z:    0.0000000000000000     



 station #           34     DB    M08
      original latitude:    5772.85010    
      original longitude:   -14428.5996    
      original x:   -14428.5996    
      original y:    5772.85010    
      original depth:   -0.00000000      m
      horizontal distance km:    15.5406017    
      target x, y, z:   -14428.5996       5772.85010       0.00000000    
      closest estimate found:    0.00000000      m away

      receiver located in slice           21
                       in element          175
                       in acoustic domain
      at coordinates: 
      xi    =   -1.0000000000000000     
      eta   =  -0.22714999999999960     
      gamma =  -0.42860000000000170     
      rotation matrix: 
      nu1 =    1.00000000       0.00000000       0.00000000    
      nu2 =    0.00000000       1.00000000       0.00000000    
      nu3 =    0.00000000       0.00000000       1.00000000    
      x:   -14428.600000000000     
      y:    5772.8500000000004     
      depth:    0.0000000000000000       m
      z:    0.0000000000000000     



 station #           35     DB    M09
      original latitude:    6603.25977    
      original longitude:   -16475.1992    
      original x:   -16475.1992    
      original y:    6603.25977    
      original depth:   -0.00000000      m
      horizontal distance km:    17.7492332    
      target x, y, z:   -16475.1992       6603.25977       0.00000000    
      closest estimate found:    0.00000000      m away

      receiver located in slice           21
                       in element          164
                       in acoustic domain
      at coordinates: 
      xi    =   -1.0000000000000000     
      eta   =   0.60326000000000068     
      gamma =  -0.47520000000000212     
      rotation matrix: 
      nu1 =    1.00000000       0.00000000       0.00000000    
      nu2 =    0.00000000       1.00000000       0.00000000    
      nu3 =    0.00000000       0.00000000       1.00000000    
      x:   -16475.200000000001     
      y:    6603.2600000000002     
      depth:    0.0000000000000000       m
      z:    0.0000000000000000     



 station #           36     DB    M10
      original latitude:    7421.87988    
      original longitude:   -18629.3008    
      original x:   -18629.3008    
      original y:    7421.87988    
      original depth:   -0.00000000      m
      horizontal distance km:    20.0533066    
      target x, y, z:   -18629.3008       7421.87988       0.00000000    
      closest estimate found:    0.00000000      m away

      receiver located in slice           21
                       in element          154
                       in acoustic domain
      at coordinates: 
      xi    =   -1.0000000000000000     
      eta   =  -0.57812000000000030     
      gamma =  -0.62929999999999697     
      rotation matrix: 
      nu1 =    1.00000000       0.00000000       0.00000000    
      nu2 =    0.00000000       1.00000000       0.00000000    
      nu3 =    0.00000000       0.00000000       1.00000000    
      x:   -18629.299999999999     
      y:    7421.8800000000001     
      depth:    0.0000000000000000       m
      z:    0.0000000000000000     



 station #           37     DB    M11
      original latitude:    8251.95020    
      original longitude:   -20676.0996    
      original x:   -20676.0996    
      original y:    8251.95020    
      original depth:   -0.00000000      m
      horizontal distance km:    22.2619801    
      target x, y, z:   -20676.0996       8251.95020       0.00000000    
      closest estimate found:    0.00000000      m away

      receiver located in slice           21
                       in element          143
                       in acoustic domain
      at coordinates: 
      xi    =   -1.0000000000000000     
      eta   =   0.25195000000000078     
      gamma =  -0.67609999999999626     
      rotation matrix: 
      nu1 =    1.00000000       0.00000000       0.00000000    
      nu2 =    0.00000000       1.00000000       0.00000000    
      nu3 =    0.00000000       0.00000000       1.00000000    
      x:   -20676.099999999999     
      y:    8251.9500000000007     
      depth:    0.0000000000000000       m
      z:    0.0000000000000000     



 station #           38     DB    M12
      original latitude:    9070.79004    
      original longitude:   -22723.0996    
      original x:   -22723.0996    
      original y:    9070.79004    
      original depth:   -0.00000000      m
      horizontal distance km:    24.4666824    
      target x, y, z:   -22723.0996       9070.79004       0.00000000    
      closest estimate found:    1.81898940E-12  m away

      receiver located in slice           21
                       in element          133
                       in acoustic domain
      at coordinates: 
      xi    =   -1.0000000000000000     
      eta   =  -0.92920999999999732     
      gamma =  -0.72309999999999997     
      rotation matrix: 
      nu1 =    1.00000000       0.00000000       0.00000000    
      nu2 =    0.00000000       1.00000000       0.00000000    
      nu3 =    0.00000000       0.00000000       1.00000000    
      x:   -22723.099999999999     
      y:    9070.7900000000027     
      depth:    0.0000000000000000       m
      z:    0.0000000000000000     



 station #           39     DB    M13
      original latitude:    9900.51953    
      original longitude:   -24770.1992    
      original x:   -24770.1992    
      original y:    9900.51953    
      original depth:   -0.00000000      m
      horizontal distance km:    26.6755142    
      target x, y, z:   -24770.1992       9900.51953       0.00000000    
      closest estimate found:    0.00000000      m away

      receiver located in slice           21
                       in element          210
                       in acoustic domain
      at coordinates: 
      xi    =    1.0000000000000000     
      eta   =   -9.9479999999999569E-002
      gamma =  -0.77020000000000077     
      rotation matrix: 
      nu1 =    1.00000000       0.00000000       0.00000000    
      nu2 =    0.00000000       1.00000000       0.00000000    
      nu3 =    0.00000000       0.00000000       1.00000000    
      x:   -24770.200000000001     
      y:    9900.5200000000004     
      depth:    0.0000000000000000       m
      z:    0.0000000000000000     



 station #           40     CC    S14
      original latitude:    5915.22998    
      original longitude:    24909.5000    
      original x:    24909.5000    
      original y:    5915.22998    
      original depth:   -0.00000000      m
      horizontal distance km:    25.6022091    
      target x, y, z:    24909.5000       5915.22998       0.00000000    
      closest estimate found:    0.00000000      m away

      receiver located in slice           29
                       in element          481
                       in acoustic domain
      at coordinates: 
      xi    =    1.0000000000000000     
      eta   =   -8.4770000000000442E-002
      gamma =   0.90949999999999998     
      rotation matrix: 
      nu1 =    1.00000000       0.00000000       0.00000000    
      nu2 =    0.00000000       1.00000000       0.00000000    
      nu3 =    0.00000000       0.00000000       1.00000000    
      x:    24909.500000000000     
      y:    5915.2299999999996     
      depth:    0.0000000000000000       m
      z:    0.0000000000000000     



 station #           41     CC    S15
      original latitude:    6346.25977    
      original longitude:    24800.5996    
      original x:    24800.5996    
      original y:    6346.25977    
      original depth:   -0.00000000      m
      horizontal distance km:    25.5997028    
      target x, y, z:    24800.5996       6346.25977       0.00000000    
      closest estimate found:    0.00000000      m away

      receiver located in slice           29
                       in element          481
                       in acoustic domain
      at coordinates: 
      xi    =    1.0000000000000000     
      eta   =   0.34626000000000073     
      gamma =   0.80059999999999987     
      rotation matrix: 
      nu1 =    1.00000000       0.00000000       0.00000000    
      nu2 =    0.00000000       1.00000000       0.00000000    
      nu3 =    0.00000000       0.00000000       1.00000000    
      x:    24800.599999999999     
      y:    6346.2600000000002     
      depth:    0.0000000000000000       m
      z:    0.0000000000000000     



 station #           42     CC    S16
      original latitude:    6777.27979    
      original longitude:    24691.5996    
      original x:    24691.5996    
      original y:    6777.27979    
      original depth:   -0.00000000      m
      horizontal distance km:    25.6048164    
      target x, y, z:    24691.5996       6777.27979       0.00000000    
      closest estimate found:    0.00000000      m away

      receiver located in slice           29
                       in element          361
                       in acoustic domain
      at coordinates: 
      xi    =   -1.0000000000000000     
      eta   =   0.77727999999999975     
      gamma =   0.69159999999999855     
      rotation matrix: 
      nu1 =    1.00000000       0.00000000       0.00000000    
      nu2 =    0.00000000       1.00000000       0.00000000    
      nu3 =    0.00000000       0.00000000       1.00000000    
      x:    24691.599999999999     
      y:    6777.2799999999997     
      depth:    0.0000000000000000       m
      z:    0.0000000000000000     



 station #           43     CC    S17
      original latitude:    7208.31006    
      original longitude:    24582.6992    
      original x:    24582.6992    
      original y:    7208.31006    
      original depth:   -0.00000000      m
      horizontal distance km:    25.6177444    
      target x, y, z:    24582.6992       7208.31006       0.00000000    
      closest estimate found:    3.63797881E-12  m away

      receiver located in slice           29
                       in element          484
                       in acoustic domain
      at coordinates: 
      xi    =    1.0000000000000000     
      eta   =  -0.79168999999999912     
      gamma =   0.58269999999999844     
      rotation matrix: 
      nu1 =    1.00000000       0.00000000       0.00000000    
      nu2 =    0.00000000       1.00000000       0.00000000    
      nu3 =    0.00000000       0.00000000       1.00000000    
      x:    24582.699999999997     
      y:    7208.3100000000004     
      depth:    0.0000000000000000       m
      z:    0.0000000000000000     



 station #           44     CC    S18
      original latitude:    7628.27979    
      original longitude:    24473.8008    
      original x:    24473.8008    
      original y:    7628.27979    
      original depth:   -0.00000000      m
      horizontal distance km:    25.6350842    
      target x, y, z:    24473.8008       7628.27979       0.00000000    
      closest estimate found:    9.09494702E-13  m away

      receiver located in slice           29
                       in element          362
                       in acoustic domain
      at coordinates: 
      xi    =   -1.0000000000000000     
      eta   =  -0.37172000000000027     
      gamma =   0.47379999999999928     
      rotation matrix: 
      nu1 =    1.00000000       0.00000000       0.00000000    
      nu2 =    0.00000000       1.00000000       0.00000000    
      nu3 =    0.00000000       0.00000000       1.00000000    
      x:    24473.799999999999     
      y:    7628.2799999999988     
      depth:    0.0000000000000000       m
      z:    0.0000000000000000     



 station #           45     CC    S19
      original latitude:    8047.87988    
      original longitude:    24257.4004    
      original x:    24257.4004    
      original y:    8047.87988    
      original depth:   -0.00000000      m
      horizontal distance km:    25.5575790    
      target x, y, z:    24257.4004       8047.87988       0.00000000    
      closest estimate found:    0.00000000      m away

      receiver located in slice           29
                       in element          484
                       in acoustic domain
      at coordinates: 
      xi    =    1.0000000000000000     
      eta   =    4.7880000000001019E-002
      gamma =   0.25740000000000146     
      rotation matrix: 
      nu1 =    1.00000000       0.00000000       0.00000000    
      nu2 =    0.00000000       1.00000000       0.00000000    
      nu3 =    0.00000000       0.00000000       1.00000000    
      x:    24257.400000000001     
      y:    8047.8800000000001     
      depth:    0.0000000000000000       m
      z:    0.0000000000000000     



 station #           46     CC    S20
      original latitude:    8467.84961    
      original longitude:    24148.5000    
      original x:    24148.5000    
      original y:    8467.84961    
      original depth:   -0.00000000      m
      horizontal distance km:    25.5901260    
      target x, y, z:    24148.5000       8467.84961       0.00000000    
      closest estimate found:    0.00000000      m away

      receiver located in slice           29
                       in element          484
                       in acoustic domain
      at coordinates: 
      xi    =    1.0000000000000000     
      eta   =   0.46784999999999988     
      gamma =   0.14849999999999999     
      rotation matrix: 
      nu1 =    1.00000000       0.00000000       0.00000000    
      nu2 =    0.00000000       1.00000000       0.00000000    
      nu3 =    0.00000000       0.00000000       1.00000000    
      x:    24148.500000000000     
      y:    8467.8500000000004     
      depth:    0.0000000000000000       m
      z:    0.0000000000000000     



 station #           47     CC    S21
      original latitude:    8887.80957    
      original longitude:    24039.5996    
      original x:    24039.5996    
      original y:    8887.80957    
      original depth:   -0.00000000      m
      horizontal distance km:    25.6299725    
      target x, y, z:    24039.5996       8887.80957       0.00000000    
      closest estimate found:    0.00000000      m away

      receiver located in slice           29
                       in element          484
                       in acoustic domain
      at coordinates: 
      xi    =    1.0000000000000000     
      eta   =   0.88780999999999954     
      gamma =    3.9599999999998546E-002
      rotation matrix: 
      nu1 =    1.00000000       0.00000000       0.00000000    
      nu2 =    0.00000000       1.00000000       0.00000000    
      nu3 =    0.00000000       0.00000000       1.00000000    
      x:    24039.599999999999     
      y:    8887.8099999999995     
      depth:    0.0000000000000000       m
      z:    0.0000000000000000     



 station #           48     CC    S22
      original latitude:    9307.41016    
      original longitude:    23823.1992    
      original x:    23823.1992    
      original y:    9307.41016    
      original depth:   -0.00000000      m
      horizontal distance km:    25.5768013    
      target x, y, z:    23823.1992       9307.41016       0.00000000    
      closest estimate found:    1.81898940E-12  m away

      receiver located in slice           29
                       in element          363
                       in acoustic domain
      at coordinates: 
      xi    =   -1.0000000000000000     
      eta   =  -0.69259000000000015     
      gamma =  -0.17679999999999563     
      rotation matrix: 
      nu1 =    1.00000000       0.00000000       0.00000000    
      nu2 =    0.00000000       1.00000000       0.00000000    
      nu3 =    0.00000000       0.00000000       1.00000000    
      x:    23823.200000000001     
      y:    9307.4099999999980     
      depth:    0.0000000000000000       m
      z:    0.0000000000000000     



 station #           49     CC    S23
      original latitude:    9716.30957    
      original longitude:    23714.3008    
      original x:    23714.3008    
      original y:    9716.30957    
      original depth:   -0.00000000      m
      horizontal distance km:    25.6276169    
      target x, y, z:    23714.3008       9716.30957       0.00000000    
      closest estimate found:    0.00000000      m away

      receiver located in slice           29
                       in element          487
                       in acoustic domain
      at coordinates: 
      xi    =    1.0000000000000000     
      eta   =  -0.28369000000000050     
      gamma =  -0.28570000000000073     
      rotation matrix: 
      nu1 =    1.00000000       0.00000000       0.00000000    
      nu2 =    0.00000000       1.00000000       0.00000000    
      nu3 =    0.00000000       0.00000000       1.00000000    
      x:    23714.299999999999     
      y:    9716.3099999999995     
      depth:    0.0000000000000000       m
      z:    0.0000000000000000     



 station #           50     CC    S24
      original latitude:    10124.7998    
      original longitude:    23497.9004    
      original x:    23497.9004    
      original y:    10124.7998    
      original depth:   -0.00000000      m
      horizontal distance km:    25.5863800    
      target x, y, z:    23497.9004       10124.7998       0.00000000    
      closest estimate found:    0.00000000      m away

      receiver located in slice           29
                       in element          487
                       in acoustic domain
      at coordinates: 
      xi    =    1.0000000000000000     
      eta   =   0.12479999999999930     
      gamma =  -0.50209999999999988     
      rotation matrix: 
      nu1 =    1.00000000       0.00000000       0.00000000    
      nu2 =    0.00000000       1.00000000       0.00000000    
      nu3 =    0.00000000       0.00000000       1.00000000    
      x:    23497.900000000001     
      y:    10124.799999999999     
      depth:    0.0000000000000000       m
      z:    0.0000000000000000     



 station #           51     CC    S25
      original latitude:    10533.4004    
      original longitude:    23281.5996    
      original x:    23281.5996    
      original y:    10533.4004    
      original depth:   -0.00000000      m
      horizontal distance km:    25.5535793    
      target x, y, z:    23281.5996       10533.4004       0.00000000    
      closest estimate found:    0.00000000      m away

      receiver located in slice           29
                       in element          487
                       in acoustic domain
      at coordinates: 
      xi    =    1.0000000000000000     
      eta   =   0.53340000000000076     
      gamma =  -0.71840000000000281     
      rotation matrix: 
      nu1 =    1.00000000       0.00000000       0.00000000    
      nu2 =    0.00000000       1.00000000       0.00000000    
      nu3 =    0.00000000       0.00000000       1.00000000    
      x:    23281.599999999999     
      y:    10533.400000000000     
      depth:    0.0000000000000000       m
      z:    0.0000000000000000     



 station #           52     CC    S26
      original latitude:    10930.9004    
      original longitude:    23065.1992    
      original x:    23065.1992    
      original y:    10930.9004    
      original depth:   -0.00000000      m
      horizontal distance km:    25.5242634    
      target x, y, z:    23065.1992       10930.9004       0.00000000    
      closest estimate found:    3.63797881E-12  m away

      receiver located in slice           29
                       in element          487
                       in acoustic domain
      at coordinates: 
      xi    =    1.0000000000000000     
      eta   =   0.93089999999999962     
      gamma =  -0.93479999999999930     
      rotation matrix: 
      nu1 =    1.00000000       0.00000000       0.00000000    
      nu2 =    0.00000000       1.00000000       0.00000000    
      nu3 =    0.00000000       0.00000000       1.00000000    
      x:    23065.199999999997     
      y:    10930.900000000000     
      depth:    0.0000000000000000       m
      z:    0.0000000000000000     



 station #           53     CC    S27
      original latitude:    11328.7002    
      original longitude:    22956.3008    
      original x:    22956.3008    
      original y:    11328.7002    
      original depth:   -0.00000000      m
      horizontal distance km:    25.5994358    
      target x, y, z:    22956.3008       11328.7002       0.00000000    
      closest estimate found:    0.00000000      m away

      receiver located in slice           29
                       in element          469
                       in acoustic domain
      at coordinates: 
      xi    =    1.0000000000000000     
      eta   =  -0.67129999999999879     
      gamma =   0.95629999999999926     
      rotation matrix: 
      nu1 =    1.00000000       0.00000000       0.00000000    
      nu2 =    0.00000000       1.00000000       0.00000000    
      nu3 =    0.00000000       0.00000000       1.00000000    
      x:    22956.299999999999     
      y:    11328.700000000001     
      depth:    0.0000000000000000       m
      z:    0.0000000000000000     



 station #           54     CC    S28
      original latitude:    11726.2002    
      original longitude:    22740.0000    
      original x:    22740.0000    
      original y:    11726.2002    
      original depth:   -0.00000000      m
      horizontal distance km:    25.5853748    
      target x, y, z:    22740.0000       11726.2002       0.00000000    
      closest estimate found:    0.00000000      m away

      receiver located in slice           29
                       in element          469
                       in acoustic domain
      at coordinates: 
      xi    =    1.0000000000000000     
      eta   =  -0.27379999999999949     
      gamma =   0.74000000000000121     
      rotation matrix: 
      nu1 =    1.00000000       0.00000000       0.00000000    
      nu2 =    0.00000000       1.00000000       0.00000000    
      nu3 =    0.00000000       0.00000000       1.00000000    
      x:    22740.000000000000     
      y:    11726.200000000001     
      depth:    0.0000000000000000       m
      z:    0.0000000000000000     



 station #           55     CC    S29
      original latitude:    12123.5996    
      original longitude:    22523.5996    
      original x:    22523.5996    
      original y:    12123.5996    
      original depth:   -0.00000000      m
      horizontal distance km:    25.5791759    
      target x, y, z:    22523.5996       12123.5996       0.00000000    
      closest estimate found:    0.00000000      m away

      receiver located in slice           29
                       in element          357
                       in acoustic domain
      at coordinates: 
      xi    =   -1.0000000000000000     
      eta   =   0.12360000000000036     
      gamma =   0.52359999999999851     
      rotation matrix: 
      nu1 =    1.00000000       0.00000000       0.00000000    
      nu2 =    0.00000000       1.00000000       0.00000000    
      nu3 =    0.00000000       0.00000000       1.00000000    
      x:    22523.599999999999     
      y:    12123.600000000000     
      depth:    0.0000000000000000       m
      z:    0.0000000000000000     



 station #           56     CC    S30
      original latitude:    12510.0000    
      original longitude:    22307.3008    
      original x:    22307.3008    
      original y:    12510.0000    
      original depth:   -0.00000000      m
      horizontal distance km:    25.5756855    
      target x, y, z:    22307.3008       12510.0000       0.00000000    
      closest estimate found:    0.00000000      m away

      receiver located in slice           29
                       in element          469
                       in acoustic domain
      at coordinates: 
      xi    =    1.0000000000000000     
      eta   =   0.51000000000000123     
      gamma =   0.30729999999999930     
      rotation matrix: 
      nu1 =    1.00000000       0.00000000       0.00000000    
      nu2 =    0.00000000       1.00000000       0.00000000    
      nu3 =    0.00000000       0.00000000       1.00000000    
      x:    22307.299999999999     
      y:    12510.000000000000     
      depth:    0.0000000000000000       m
      z:    0.0000000000000000     



 station #           57     CC    S31
      original latitude:    12896.4004    
      original longitude:    22090.9004    
      original x:    22090.9004    
      original y:    12896.4004    
      original depth:   -0.00000000      m
      horizontal distance km:    25.5797768    
      target x, y, z:    22090.9004       12896.4004       0.00000000    
      closest estimate found:    1.81898940E-12  m away

      receiver located in slice           29
                       in element          469
                       in acoustic domain
      at coordinates: 
      xi    =    1.0000000000000000     
      eta   =   0.89639999999999964     
      gamma =    9.0900000000001452E-002
      rotation matrix: 
      nu1 =    1.00000000       0.00000000       0.00000000    
      nu2 =    0.00000000       1.00000000       0.00000000    
      nu3 =    0.00000000       0.00000000       1.00000000    
      x:    22090.900000000001     
      y:    12896.400000000001     
      depth:    0.0000000000000000       m
      z:    0.0000000000000000     



 station #           58     CC    S32
      original latitude:    13271.7998    
      original longitude:    21874.5996    
      original x:    21874.5996    
      original y:    13271.7998    
      original depth:   -0.00000000      m
      horizontal distance km:    25.5859108    
      target x, y, z:    21874.5996       13271.7998       0.00000000    
      closest estimate found:    0.00000000      m away

      receiver located in slice           30
                       in element          361
                       in acoustic domain
      at coordinates: 
      xi    =   -1.0000000000000000     
      eta   =  -0.72820000000000074     
      gamma =  -0.12540000000000145     
      rotation matrix: 
      nu1 =    1.00000000       0.00000000       0.00000000    
      nu2 =    0.00000000       1.00000000       0.00000000    
      nu3 =    0.00000000       0.00000000       1.00000000    
      x:    21874.599999999999     
      y:    13271.799999999999     
      depth:    0.0000000000000000       m
      z:    0.0000000000000000     



 station #           59     CC    S33
      original latitude:    13647.0996    
      original longitude:    21658.3008    
      original x:    21658.3008    
      original y:    13647.0996    
      original depth:   -0.00000000      m
      horizontal distance km:    25.5993214    
      target x, y, z:    21658.3008       13647.0996       0.00000000    
      closest estimate found:    0.00000000      m away

      receiver located in slice           30
                       in element          413
                       in acoustic domain
      at coordinates: 
      xi    =    1.0000000000000000     
      eta   =  -0.35289999999999905     
      gamma =  -0.34170000000000167     
      rotation matrix: 
      nu1 =    1.00000000       0.00000000       0.00000000    
      nu2 =    0.00000000       1.00000000       0.00000000    
      nu3 =    0.00000000       0.00000000       1.00000000    
      x:    21658.299999999999     
      y:    13647.100000000000     
      depth:    0.0000000000000000       m
      z:    0.0000000000000000     



 station #           60     CC    S34
      original latitude:    14022.0996    
      original longitude:    21334.4004    
      original x:    21334.4004    
      original y:    14022.0996    
      original depth:   -0.00000000      m
      horizontal distance km:    25.5299015    
      target x, y, z:    21334.4004       14022.0996       0.00000000    
      closest estimate found:    0.00000000      m away

      receiver located in slice           30
                       in element          413
                       in acoustic domain
      at coordinates: 
      xi    =    1.0000000000000000     
      eta   =    2.2100000000000362E-002
      gamma =  -0.66559999999999619     
      rotation matrix: 
      nu1 =    1.00000000       0.00000000       0.00000000    
      nu2 =    0.00000000       1.00000000       0.00000000    
      nu3 =    0.00000000       0.00000000       1.00000000    
      x:    21334.400000000001     
      y:    14022.100000000000     
      depth:    0.0000000000000000       m
      z:    0.0000000000000000     



 station #           61     CC    S35
      original latitude:    14397.4004    
      original longitude:    21118.0996    
      original x:    21118.0996    
      original y:    14397.4004    
      original depth:   -0.00000000      m
      horizontal distance km:    25.5589371    
      target x, y, z:    21118.0996       14397.4004       0.00000000    
      closest estimate found:    0.00000000      m away

      receiver located in slice           30
                       in element          413
                       in acoustic domain
      at coordinates: 
      xi    =    1.0000000000000000     
      eta   =   0.39739999999999720     
      gamma =  -0.88190000000000512     
      rotation matrix: 
      nu1 =    1.00000000       0.00000000       0.00000000    
      nu2 =    0.00000000       1.00000000       0.00000000    
      nu3 =    0.00000000       0.00000000       1.00000000    
      x:    21118.099999999999     
      y:    14397.400000000000     
      depth:    0.0000000000000000       m
      z:    0.0000000000000000     



 station #           62     CC    S36
      original latitude:    14761.7002    
      original longitude:    20901.8008    
      original x:    20901.8008    
      original y:    14761.7002    
      original depth:   -0.00000000      m
      horizontal distance km:    25.5889244    
      target x, y, z:    20901.8008       14761.7002       0.00000000    
      closest estimate found:    0.00000000      m away

      receiver located in slice           30
                       in element          397
                       in acoustic domain
      at coordinates: 
      xi    =    1.0000000000000000     
      eta   =   0.76170000000000204     
      gamma =   0.90179999999999927     
      rotation matrix: 
      nu1 =    1.00000000       0.00000000       0.00000000    
      nu2 =    0.00000000       1.00000000       0.00000000    
      nu3 =    0.00000000       0.00000000       1.00000000    
      x:    20901.799999999999     
      y:    14761.700000000001     
      depth:    0.0000000000000000       m
      z:    0.0000000000000000     



 station #           63     CC    S37
      original latitude:    15114.5000    
      original longitude:    20578.0000    
      original x:    20578.0000    
      original y:    15114.5000    
      original depth:   -0.00000000      m
      horizontal distance km:    25.5323753    
      target x, y, z:    20578.0000       15114.5000       0.00000000    
      closest estimate found:    0.00000000      m away

      receiver located in slice           30
                       in element          400
                       in acoustic domain
      at coordinates: 
      xi    =    1.0000000000000000     
      eta   =  -0.88549999999999829     
      gamma =   0.57800000000000129     
      rotation matrix: 
      nu1 =    1.00000000       0.00000000       0.00000000    
      nu2 =    0.00000000       1.00000000       0.00000000    
      nu3 =    0.00000000       0.00000000       1.00000000    
      x:    20578.000000000000     
      y:    15114.500000000000     
      depth:    0.0000000000000000       m
      z:    0.0000000000000000     



 station #           64     CC    S38
      original latitude:    15467.7002    
      original longitude:    20361.6992    
      original x:    20361.6992    
      original y:    15467.7002    
      original depth:   -0.00000000      m
      horizontal distance km:    25.5704632    
      target x, y, z:    20361.6992       15467.7002       0.00000000    
      closest estimate found:    0.00000000      m away

      receiver located in slice           30
                       in element          400
                       in acoustic domain
      at coordinates: 
      xi    =    1.0000000000000000     
      eta   =  -0.53229999999999900     
      gamma =   0.36170000000000230     
      rotation matrix: 
      nu1 =    1.00000000       0.00000000       0.00000000    
      nu2 =    0.00000000       1.00000000       0.00000000    
      nu3 =    0.00000000       0.00000000       1.00000000    
      x:    20361.700000000001     
      y:    15467.700000000001     
      depth:    0.0000000000000000       m
      z:    0.0000000000000000     



 station #           65     CC    S39
      original latitude:    15820.5000    
      original longitude:    20037.9004    
      original x:    20037.9004    
      original y:    15820.5000    
      original depth:   -0.00000000      m
      horizontal distance km:    25.5304852    
      target x, y, z:    20037.9004       15820.5000       0.00000000    
      closest estimate found:    0.00000000      m away

      receiver located in slice           30
                       in element          400
                       in acoustic domain
      at coordinates: 
      xi    =    1.0000000000000000     
      eta   =  -0.17949999999999999     
      gamma =    3.7900000000001453E-002
      rotation matrix: 
      nu1 =    1.00000000       0.00000000       0.00000000    
      nu2 =    0.00000000       1.00000000       0.00000000    
      nu3 =    0.00000000       0.00000000       1.00000000    
      x:    20037.900000000001     
      y:    15820.500000000000     
      depth:    0.0000000000000000       m
      z:    0.0000000000000000     



 station #           66     CC    S40
      original latitude:    16162.7002    
      original longitude:    19821.5996    
      original x:    19821.5996    
      original y:    16162.7002    
      original depth:   -0.00000000      m
      horizontal distance km:    25.5759392    
      target x, y, z:    19821.5996       16162.7002       0.00000000    
      closest estimate found:    0.00000000      m away

      receiver located in slice           30
                       in element          400
                       in acoustic domain
      at coordinates: 
      xi    =    1.0000000000000000     
      eta   =   0.16270000000000073     
      gamma =  -0.17840000000000145     
      rotation matrix: 
      nu1 =    1.00000000       0.00000000       0.00000000    
      nu2 =    0.00000000       1.00000000       0.00000000    
      nu3 =    0.00000000       0.00000000       1.00000000    
      x:    19821.599999999999     
      y:    16162.700000000001     
      depth:    0.0000000000000000       m
      z:    0.0000000000000000     



 station #           67     CC    S41
      original latitude:    16504.4004    
      original longitude:    19497.8008    
      original x:    19497.8008    
      original y:    16504.4004    
      original depth:   -0.00000000      m
      horizontal distance km:    25.5452423    
      target x, y, z:    19497.8008       16504.4004       0.00000000    
      closest estimate found:    0.00000000      m away

      receiver located in slice           30
                       in element          400
                       in acoustic domain
      at coordinates: 
      xi    =    1.0000000000000000     
      eta   =   0.50439999999999896     
      gamma =  -0.50220000000000209     
      rotation matrix: 
      nu1 =    1.00000000       0.00000000       0.00000000    
      nu2 =    0.00000000       1.00000000       0.00000000    
      nu3 =    0.00000000       0.00000000       1.00000000    
      x:    19497.799999999999     
      y:    16504.400000000001     
      depth:    0.0000000000000000       m
      z:    0.0000000000000000     



 station #           68     CC    S42
      original latitude:    16846.1992    
      original longitude:    19174.0000    
      original x:    19174.0000    
      original y:    16846.1992    
      original depth:   -0.00000000      m
      horizontal distance km:    25.5232582    
      target x, y, z:    19174.0000       16846.1992       0.00000000    
      closest estimate found:    0.00000000      m away

      receiver located in slice           30
                       in element          400
                       in acoustic domain
      at coordinates: 
      xi    =    1.0000000000000000     
      eta   =   0.84620000000000073     
      gamma =  -0.82600000000000140     
      rotation matrix: 
      nu1 =    1.00000000       0.00000000       0.00000000    
      nu2 =    0.00000000       1.00000000       0.00000000    
      nu3 =    0.00000000       0.00000000       1.00000000    
      x:    19174.000000000000     
      y:    16846.200000000001     
      depth:    0.0000000000000000       m
      z:    0.0000000000000000     



 station #           69     CC    S43
      original latitude:    17176.9004    
      original longitude:    18850.1992    
      original x:    18850.1992    
      original y:    17176.9004    
      original depth:   -0.00000000      m
      horizontal distance km:    25.5024700    
      target x, y, z:    18850.1992       17176.9004       0.00000000    
      closest estimate found:    0.00000000      m away

      receiver located in slice           30
                       in element          351
                       in acoustic domain
      at coordinates: 
      xi    =   -1.0000000000000000     
      eta   =  -0.82309999999999861     
      gamma =   0.85020000000000073     
      rotation matrix: 
      nu1 =    1.00000000       0.00000000       0.00000000    
      nu2 =    0.00000000       1.00000000       0.00000000    
      nu3 =    0.00000000       0.00000000       1.00000000    
      x:    18850.200000000001     
      y:    17176.900000000001     
      depth:    0.0000000000000000       m
      z:    0.0000000000000000     



 station #           70     CC    S44
      original latitude:    17496.9004    
      original longitude:    18634.0000    
      original x:    18634.0000    
      original y:    17496.9004    
      original depth:   -0.00000000      m
      horizontal distance km:    25.5610542    
      target x, y, z:    18634.0000       17496.9004       0.00000000    
      closest estimate found:    0.00000000      m away

      receiver located in slice           30
                       in element          389
                       in acoustic domain
      at coordinates: 
      xi    =    1.0000000000000000     
      eta   =  -0.50309999999999988     
      gamma =   0.63399999999999768     
      rotation matrix: 
      nu1 =    1.00000000       0.00000000       0.00000000    
[...]
 Time steps remaining =        12000
 Estimated remaining time in seconds =    220.440582    
 Estimated remaining time in hh:mm:ss =      0 h 03 m 40 s
 Estimated total run time in seconds =    367.400970    
 Estimated total run time in hh:mm:ss =      0 h 06 m 07 s
 We have done    40.0000000     % of that
 The run will finish approximately on (in local time): Tue May 28, 2019 16:49

 Time step #         8500
 Time:    68.9899979      seconds
 Elapsed time in seconds =    154.23213195800781     
 Elapsed time in hh:mm:ss =      0 h 02 m 34 s
 Mean elapsed time per time step in seconds =    1.81449559E-02
 Max norm displacement vector U in all slices (m) =    6411.88086    
 Max norm pressure P in all slices (Pa) =    285245.875    
 Time steps done =         8500  out of        20000
 Time steps remaining =        11500
 Estimated remaining time in seconds =    208.667007    
 Estimated remaining time in hh:mm:ss =      0 h 03 m 28 s
 Estimated total run time in seconds =    362.899139    
 Estimated total run time in hh:mm:ss =      0 h 06 m 02 s
 We have done    42.5000000     % of that
 The run will finish approximately on (in local time): Tue May 28, 2019 16:48

 Time step #         9000
 Time:    73.9899979      seconds
 Elapsed time in seconds =    161.80637192726135     
 Elapsed time in hh:mm:ss =      0 h 02 m 41 s
 Mean elapsed time per time step in seconds =    1.79784857E-02
 Max norm displacement vector U in all slices (m) =    6411.92139    
 Max norm pressure P in all slices (Pa) =    272441.875    
 Time steps done =         9000  out of        20000
 Time steps remaining =        11000
 Estimated remaining time in seconds =    197.763336    
 Estimated remaining time in hh:mm:ss =      0 h 03 m 17 s
 Estimated total run time in seconds =    359.569702    
 Estimated total run time in hh:mm:ss =      0 h 05 m 59 s
 We have done    45.0000000     % of that
 The run will finish approximately on (in local time): Tue May 28, 2019 16:48

 Time step #         9500
 Time:    78.9899979      seconds
 Elapsed time in seconds =    169.48099207878113     
 Elapsed time in hh:mm:ss =      0 h 02 m 49 s
 Mean elapsed time per time step in seconds =    1.78401042E-02
 Max norm displacement vector U in all slices (m) =    6411.95361    
 Max norm pressure P in all slices (Pa) =    327254.125    
 Time steps done =         9500  out of        20000
 Time steps remaining =        10500
 Estimated remaining time in seconds =    187.321091    
 Estimated remaining time in hh:mm:ss =      0 h 03 m 07 s
 Estimated total run time in seconds =    356.802094    
 Estimated total run time in hh:mm:ss =      0 h 05 m 56 s
 We have done    47.5000000     % of that
 The run will finish approximately on (in local time): Tue May 28, 2019 16:48

 Time step #        10000
 Time:    83.9899979      seconds
 Elapsed time in seconds =    177.28926301002502     
 Elapsed time in hh:mm:ss =      0 h 02 m 57 s
 Mean elapsed time per time step in seconds =    1.77289266E-02
 Max norm displacement vector U in all slices (m) =    6411.98145    
 Max norm pressure P in all slices (Pa) =    370553.750    
 Time steps done =        10000  out of        20000
 Time steps remaining =        10000
 Estimated remaining time in seconds =    177.289261    
 Estimated remaining time in hh:mm:ss =      0 h 02 m 57 s
 Estimated total run time in seconds =    354.578522    
 Estimated total run time in hh:mm:ss =      0 h 05 m 54 s
 We have done    50.0000000     % of that
 The run will finish approximately on (in local time): Tue May 28, 2019 16:49


 Total number of time steps written:        10000
 Writing the seismograms in parallel took    7.09769678      seconds

 Time step #        10500
 Time:    88.9899979      seconds
 Elapsed time in seconds =    192.11439013481140     
 Elapsed time in hh:mm:ss =      0 h 03 m 12 s
 Mean elapsed time per time step in seconds =    1.82966087E-02
 Max norm displacement vector U in all slices (m) =    6412.00244    
 Max norm pressure P in all slices (Pa) =    299007.781    
 Time steps done =        10500  out of        20000
 Time steps remaining =         9500
 Estimated remaining time in seconds =    173.817780    
 Estimated remaining time in hh:mm:ss =      0 h 02 m 53 s
 Estimated total run time in seconds =    365.932159    
 Estimated total run time in hh:mm:ss =      0 h 06 m 05 s
 We have done    52.5000000     % of that
 The run will finish approximately on (in local time): Tue May 28, 2019 16:49

 Time step #        11000
 Time:    93.9899979      seconds
 Elapsed time in seconds =    199.73002409934998     
 Elapsed time in hh:mm:ss =      0 h 03 m 19 s
 Mean elapsed time per time step in seconds =    1.81572754E-02
 Max norm displacement vector U in all slices (m) =    6412.01807    
 Max norm pressure P in all slices (Pa) =    318442.250    
 Time steps done =        11000  out of        20000
 Time steps remaining =         9000
 Estimated remaining time in seconds =    163.415482    
 Estimated remaining time in hh:mm:ss =      0 h 02 m 43 s
 Estimated total run time in seconds =    363.145508    
 Estimated total run time in hh:mm:ss =      0 h 06 m 03 s
 We have done    55.0000000     % of that
 The run will finish approximately on (in local time): Tue May 28, 2019 16:49

 Time step #        11500
 Time:    98.9899979      seconds
 Elapsed time in seconds =    207.06009602546692     
 Elapsed time in hh:mm:ss =      0 h 03 m 27 s
 Mean elapsed time per time step in seconds =    1.80052258E-02
 Max norm displacement vector U in all slices (m) =    6412.03223    
 Max norm pressure P in all slices (Pa) =    280081.062    
 Time steps done =        11500  out of        20000
 Time steps remaining =         8500
 Estimated remaining time in seconds =    153.044418    
 Estimated remaining time in hh:mm:ss =      0 h 02 m 33 s
 Estimated total run time in seconds =    360.104523    
 Estimated total run time in hh:mm:ss =      0 h 06 m 00 s
 We have done    57.5000000     % of that
 The run will finish approximately on (in local time): Tue May 28, 2019 16:49

 Time step #        12000
 Time:    103.989998      seconds
 Elapsed time in seconds =    214.26972913742065     
 Elapsed time in hh:mm:ss =      0 h 03 m 34 s
 Mean elapsed time per time step in seconds =    1.78558100E-02
 Max norm displacement vector U in all slices (m) =    6412.04199    
 Max norm pressure P in all slices (Pa) =    273303.875    
 Time steps done =        12000  out of        20000
 Time steps remaining =         8000
 Estimated remaining time in seconds =    142.846481    
 Estimated remaining time in hh:mm:ss =      0 h 02 m 22 s
 Estimated total run time in seconds =    357.116211    
 Estimated total run time in hh:mm:ss =      0 h 05 m 57 s
 We have done    60.0000000     % of that
 The run will finish approximately on (in local time): Tue May 28, 2019 16:48

 Time step #        12500
 Time:    108.989998      seconds
 Elapsed time in seconds =    221.44485592842102     
 Elapsed time in hh:mm:ss =      0 h 03 m 41 s
 Mean elapsed time per time step in seconds =    1.77155882E-02
 Max norm displacement vector U in all slices (m) =    6412.05127    
 Max norm pressure P in all slices (Pa) =    267481.031    
 Time steps done =        12500  out of        20000
 Time steps remaining =         7500
 Estimated remaining time in seconds =    132.866913    
 Estimated remaining time in hh:mm:ss =      0 h 02 m 12 s
 Estimated total run time in seconds =    354.311768    
 Estimated total run time in hh:mm:ss =      0 h 05 m 54 s
 We have done    62.5000000     % of that
 The run will finish approximately on (in local time): Tue May 28, 2019 16:48

 Time step #        13000
 Time:    113.989998      seconds
 Elapsed time in seconds =    228.69613194465637     
 Elapsed time in hh:mm:ss =      0 h 03 m 48 s
 Mean elapsed time per time step in seconds =    1.75920110E-02
 Max norm displacement vector U in all slices (m) =    6412.05908    
 Max norm pressure P in all slices (Pa) =    259130.500    
 Time steps done =        13000  out of        20000
 Time steps remaining =         7000
 Estimated remaining time in seconds =    123.144073    
 Estimated remaining time in hh:mm:ss =      0 h 02 m 03 s
 Estimated total run time in seconds =    351.840210    
 Estimated total run time in hh:mm:ss =      0 h 05 m 51 s
 We have done    65.0000000     % of that
 The run will finish approximately on (in local time): Tue May 28, 2019 16:48

 Time step #        13500
 Time:    118.989998      seconds
 Elapsed time in seconds =    236.33117413520813     
 Elapsed time in hh:mm:ss =      0 h 03 m 56 s
 Mean elapsed time per time step in seconds =    1.75060127E-02
 Max norm displacement vector U in all slices (m) =    6412.06445    
 Max norm pressure P in all slices (Pa) =    314393.562    
 Time steps done =        13500  out of        20000
 Time steps remaining =         6500
 Estimated remaining time in seconds =    113.789085    
 Estimated remaining time in hh:mm:ss =      0 h 01 m 53 s
 Estimated total run time in seconds =    350.120270    
 Estimated total run time in hh:mm:ss =      0 h 05 m 50 s
 We have done    67.5000000     % of that
 The run will finish approximately on (in local time): Tue May 28, 2019 16:49

 Time step #        14000
 Time:    123.989998      seconds
 Elapsed time in seconds =    243.44548392295837     
 Elapsed time in hh:mm:ss =      0 h 04 m 03 s
 Mean elapsed time per time step in seconds =    1.73889622E-02
 Max norm displacement vector U in all slices (m) =    6412.06885    
 Max norm pressure P in all slices (Pa) =    298314.812    
 Time steps done =        14000  out of        20000
 Time steps remaining =         6000
 Estimated remaining time in seconds =    104.333778    
 Estimated remaining time in hh:mm:ss =      0 h 01 m 44 s
 Estimated total run time in seconds =    347.779266    
 Estimated total run time in hh:mm:ss =      0 h 05 m 47 s
 We have done    70.0000000     % of that
 The run will finish approximately on (in local time): Tue May 28, 2019 16:49

 Time step #        14500
 Time:    128.990005      seconds
 Elapsed time in seconds =    250.52276897430420     
 Elapsed time in hh:mm:ss =      0 h 04 m 10 s
 Mean elapsed time per time step in seconds =    1.72774326E-02
 Max norm displacement vector U in all slices (m) =    6412.07275    
 Max norm pressure P in all slices (Pa) =    301037.125    
 Time steps done =        14500  out of        20000
 Time steps remaining =         5500
 Estimated remaining time in seconds =    95.0258789    
 Estimated remaining time in hh:mm:ss =      0 h 01 m 35 s
 Estimated total run time in seconds =    345.548645    
 Estimated total run time in hh:mm:ss =      0 h 05 m 45 s
 We have done    72.5000000     % of that
 The run will finish approximately on (in local time): Tue May 28, 2019 16:49

 Time step #        15000
 Time:    133.990005      seconds
 Elapsed time in seconds =    257.84613704681396     
 Elapsed time in hh:mm:ss =      0 h 04 m 17 s
 Mean elapsed time per time step in seconds =    1.71897430E-02
 Max norm displacement vector U in all slices (m) =    6412.07373    
 Max norm pressure P in all slices (Pa) =    272151.625    
 Time steps done =        15000  out of        20000
 Time steps remaining =         5000
 Estimated remaining time in seconds =    85.9487152    
 Estimated remaining time in hh:mm:ss =      0 h 01 m 25 s
 Estimated total run time in seconds =    343.794861    
 Estimated total run time in hh:mm:ss =      0 h 05 m 43 s
 We have done    75.0000000     % of that
 The run will finish approximately on (in local time): Tue May 28, 2019 16:48


 Total number of time steps written:        15000
 Writing the seismograms in parallel took    6.91085625      seconds

 Time step #        15500
 Time:    138.990005      seconds
 Elapsed time in seconds =    272.35944199562073     
 Elapsed time in hh:mm:ss =      0 h 04 m 32 s
 Mean elapsed time per time step in seconds =    1.75715778E-02
 Max norm displacement vector U in all slices (m) =    6412.07812    
 Max norm pressure P in all slices (Pa) =    221610.812    
 Time steps done =        15500  out of        20000
 Time steps remaining =         4500
 Estimated remaining time in seconds =    79.0720978    
 Estimated remaining time in hh:mm:ss =      0 h 01 m 19 s
 Estimated total run time in seconds =    351.431549    
 Estimated total run time in hh:mm:ss =      0 h 05 m 51 s
 We have done    77.5000000     % of that
 The run will finish approximately on (in local time): Tue May 28, 2019 16:48

 Time step #        16000
 Time:    143.990005      seconds
 Elapsed time in seconds =    279.82462191581726     
 Elapsed time in hh:mm:ss =      0 h 04 m 39 s
 Mean elapsed time per time step in seconds =    1.74890384E-02
 Max norm displacement vector U in all slices (m) =    6412.07910    
 Max norm pressure P in all slices (Pa) =    275489.625    
 Time steps done =        16000  out of        20000
 Time steps remaining =         4000
 Estimated remaining time in seconds =    69.9561539    
 Estimated remaining time in hh:mm:ss =      0 h 01 m 09 s
 Estimated total run time in seconds =    349.780792    
 Estimated total run time in hh:mm:ss =      0 h 05 m 49 s
 We have done    80.0000000     % of that
 The run will finish approximately on (in local time): Tue May 28, 2019 16:48

 Time step #        16500
 Time:    148.990005      seconds
 Elapsed time in seconds =    286.98475909233093     
 Elapsed time in hh:mm:ss =      0 h 04 m 46 s
 Mean elapsed time per time step in seconds =    1.73930153E-02
 Max norm displacement vector U in all slices (m) =    6412.07959    
 Max norm pressure P in all slices (Pa) =    286664.906    
 Time steps done =        16500  out of        20000
 Time steps remaining =         3500
 Estimated remaining time in seconds =    60.8755531    
 Estimated remaining time in hh:mm:ss =      0 h 01 m 00 s
 Estimated total run time in seconds =    347.860321    
 Estimated total run time in hh:mm:ss =      0 h 05 m 47 s
 We have done    82.5000000     % of that
 The run will finish approximately on (in local time): Tue May 28, 2019 16:48

 Time step #        17000
 Time:    153.990005      seconds
 Elapsed time in seconds =    294.71077895164490     
 Elapsed time in hh:mm:ss =      0 h 04 m 54 s
 Mean elapsed time per time step in seconds =    1.73359290E-02
 Max norm displacement vector U in all slices (m) =    6412.08154    
 Max norm pressure P in all slices (Pa) =    373761.000    
 Time steps done =        17000  out of        20000
 Time steps remaining =         3000
 Estimated remaining time in seconds =    52.0077858    
 Estimated remaining time in hh:mm:ss =      0 h 00 m 52 s
 Estimated total run time in seconds =    346.718567    
 Estimated total run time in hh:mm:ss =      0 h 05 m 46 s
 We have done    85.0000000     % of that
 The run will finish approximately on (in local time): Tue May 28, 2019 16:49

 Time step #        17500
 Time:    158.990005      seconds
 Elapsed time in seconds =    301.96297812461853     
 Elapsed time in hh:mm:ss =      0 h 05 m 01 s
 Mean elapsed time per time step in seconds =    1.72550268E-02
 Max norm displacement vector U in all slices (m) =    6412.08350    
 Max norm pressure P in all slices (Pa) =    238067.797    
 Time steps done =        17500  out of        20000
 Time steps remaining =         2500
 Estimated remaining time in seconds =    43.1375694    
 Estimated remaining time in hh:mm:ss =      0 h 00 m 43 s
 Estimated total run time in seconds =    345.100555    
 Estimated total run time in hh:mm:ss =      0 h 05 m 45 s
 We have done    87.5000000     % of that
 The run will finish approximately on (in local time): Tue May 28, 2019 16:49

 Time step #        18000
 Time:    163.990005      seconds
 Elapsed time in seconds =    309.13610911369324     
 Elapsed time in hh:mm:ss =      0 h 05 m 09 s
 Mean elapsed time per time step in seconds =    1.71742290E-02
 Max norm displacement vector U in all slices (m) =    6412.08301    
 Max norm pressure P in all slices (Pa) =    202818.531    
 Time steps done =        18000  out of        20000
 Time steps remaining =         2000
 Estimated remaining time in seconds =    34.3484573    
 Estimated remaining time in hh:mm:ss =      0 h 00 m 34 s
 Estimated total run time in seconds =    343.484558    
 Estimated total run time in hh:mm:ss =      0 h 05 m 43 s
 We have done    90.0000000     % of that
 The run will finish approximately on (in local time): Tue May 28, 2019 16:49

 Time step #        18500
 Time:    168.990005      seconds
 Elapsed time in seconds =    315.97564697265625     
 Elapsed time in hh:mm:ss =      0 h 05 m 15 s
 Mean elapsed time per time step in seconds =    1.70797650E-02
 Max norm displacement vector U in all slices (m) =    6412.08447    
 Max norm pressure P in all slices (Pa) =    252369.812    
 Time steps done =        18500  out of        20000
 Time steps remaining =         1500
 Estimated remaining time in seconds =    25.6196480    
 Estimated remaining time in hh:mm:ss =      0 h 00 m 25 s
 Estimated total run time in seconds =    341.595306    
 Estimated total run time in hh:mm:ss =      0 h 05 m 41 s
 We have done    92.5000000     % of that
 The run will finish approximately on (in local time): Tue May 28, 2019 16:48

 Time step #        19000
 Time:    173.990005      seconds
 Elapsed time in seconds =    323.50320100784302     
 Elapsed time in hh:mm:ss =      0 h 05 m 23 s
 Mean elapsed time per time step in seconds =    1.70264840E-02
 Max norm displacement vector U in all slices (m) =    6412.08545    
 Max norm pressure P in all slices (Pa) =    289822.438    
 Time steps done =        19000  out of        20000
 Time steps remaining =         1000
 Estimated remaining time in seconds =    17.0264835    
 Estimated remaining time in hh:mm:ss =      0 h 00 m 17 s
 Estimated total run time in seconds =    340.529694    
 Estimated total run time in hh:mm:ss =      0 h 05 m 40 s
 We have done    95.0000000     % of that
 The run will finish approximately on (in local time): Tue May 28, 2019 16:48

 Time step #        19500
 Time:    178.990005      seconds
 Elapsed time in seconds =    330.88461709022522     
 Elapsed time in hh:mm:ss =      0 h 05 m 30 s
 Mean elapsed time per time step in seconds =    1.69684421E-02
 Max norm displacement vector U in all slices (m) =    6412.08496    
 Max norm pressure P in all slices (Pa) =    366759.500    
 Time steps done =        19500  out of        20000
 Time steps remaining =          500
 Estimated remaining time in seconds =    8.48422050    
 Estimated remaining time in hh:mm:ss =      0 h 00 m 08 s
 Estimated total run time in seconds =    339.368835    
 Estimated total run time in hh:mm:ss =      0 h 05 m 39 s
 We have done    97.5000000     % of that
 The run will finish approximately on (in local time): Tue May 28, 2019 16:48

 Time step #        20000
 Time:    183.990005      seconds
 Elapsed time in seconds =    338.18222904205322     
 Elapsed time in hh:mm:ss =      0 h 05 m 38 s
 Mean elapsed time per time step in seconds =    1.69091113E-02
 Max norm displacement vector U in all slices (m) =    6412.08545    
 Max norm pressure P in all slices (Pa) =    279276.250    
 Time steps done =        20000  out of        20000
 Time steps remaining =            0
 Estimated remaining time in seconds =    0.00000000    
 Estimated remaining time in hh:mm:ss =      0 h 00 m 00 s
 Estimated total run time in seconds =    338.182220    
 Estimated total run time in hh:mm:ss =      0 h 05 m 38 s
 We have done    100.000000     % of that


 Total number of time steps written:        20000
 Writing the seismograms in parallel took    7.57586098      seconds

 Time-Loop Complete. Timing info:
 Total elapsed time in seconds =    345.77456903457642     
 Total elapsed time in hh:mm:ss =      0 h 05 m 45 s

 End of the simulation

