
 **********************************************
 **** Specfem 3-D Solver - MPI version f90 ****
 **********************************************

 Running Git package version of the code: v2.0.2-2895-g054928d
 which is Git commit 054928d5f5b89d476fc569b743e9ad7facab9c11
 dating From Date:   Wed May 22 13:39:03 2019 -0600


 There are           32  MPI processes
 Processes are numbered from 0 to           31

 There is a total of           32  slices

  NDIM =            3

  NGLLX =            5
  NGLLY =            5
  NGLLZ =            5

 using single precision for the calculations

 smallest and largest possible floating-point numbers are:    1.17549435E-38   3.40282347E+38

 velocity model:   default 

 total acoustic elements    :       10000
 total elastic elements     :        5000
 total poroelastic elements :           0

 ********
 minimum and maximum number of elements
 and points in the CUBIT + SCOTCH mesh:

 NSPEC_global_min =          445
 NSPEC_global_max =          492
 NSPEC_global_max / NSPEC_global_min imbalance =    1.10561800      =    10.5617981      %
 NSPEC_global_sum =        15000

 NGLOB_global_min =        32133
 NGLOB_global_max =        35541
 NGLOB_global_max / NGLOB_global_min imbalance =    1.10605919      =    10.6059189      %
 NGLOB_global_sum =      1069844

 If you have elements of a single type (all acoustic, all elastic, all poroelastic, and without CPML)
 in the whole mesh, then there should be no significant imbalance in the above numbers.
 Otherwise, it is normal to have imbalance in elements and points because the domain decomposer
 compensates for the different cost of different elements by partitioning them unevenly among processes.
 ********


 ********
 Model: P velocity min,max =    330.000031       7500.00000    
 Model: S velocity min,max =    0.00000000       4300.00000    

 Model: Poisson's ratio min,max =   0.255164206      0.500000000    
 ********

 *********************************************
 *** Verification of simulation parameters ***
 *********************************************

 *** Xmin and Xmax of the model =    370776.688       420776.688    
 *** Ymin and Ymax of the model =    8302079.50       8352079.50    
 *** Zmin and Zmax of the model =   -17000.0000       30000.0000    

 *** Max GLL point distance =    655.000000    
 *** Min GLL point distance =    323.761719    
 *** Max/min ratio =    2.02309275    

 *** Max element size =    2000.00000    
 *** Min element size =    1875.00000    
 *** Max/min ratio =    1.06666672    

 *** Minimum period resolved =    7.57575703    
 *** Maximum suggested time step =    2.15841141E-02

 *** for DT :    1.0000000000000000E-002
 *** Max stability for wave velocities =   0.231651843    

 Elapsed time for checking mesh resolution in seconds =    1.7180442810058594E-003
 saving VTK files for Courant number and minimum period

 ******************************************
 There is a total of           32  slices
 ******************************************

 mesh surfaces:
   high-resolution  =  F
   nfaces per slice =           76         152           0          72          95         208         120          42          42         125         223         115         102          42         121          42          72           0          57         150           0          76          79         209           0          72          72           0         116         124          33          41

   total number of surface faces is         2678

   used on cross-sections

 surface movies:
   saving: particle velocities
   number of steps between frames =          200


 kd-tree:
   total data points:          490
   theoretical   number of nodes:          974
                tree memory size:    2.97241211E-02 MB
   actual        number of nodes:          979
                tree memory size:    2.98767090E-02 MB
   maximum depth   :           10
   creation timing :    0.00000000     (s)


 sources:           1

 ********************
  locating sources
 ********************

 reading source information from ./DATA/CMTSOLUTION file

 UTM projection:
   UTM zone:           -2

 source #            1
   source located in slice           10
                  in element          302
                  in elastic domain

   using moment tensor source: 
     xi coordinate of source in that element:  -0.33333333333333492     
     eta coordinate of source in that element:    2.0659864693880079E-004
     gamma coordinate of source in that element:    8.6008235812184690E-006

   source time function:
     using Gaussian source time function
     half duration:    8.0000000000000000       seconds
     time shift:    0.0000000000000000       seconds

   magnitude of the source:
        scalar moment M0 =    1.6844703915474442E+028  dyne-cm
     moment magnitude Mw =    8.1176424451728337     

   original (requested) position of the source:

             latitude:   -15.130000000000001     
            longitude:   -171.97000000000000     

            UTM x:    395776.69610082358     
            UTM y:    8327079.7065986460     
           depth:    12.000000000000000       km

   position of the source that will be used:

            UTM x:    395776.69610082358     
            UTM y:    8327079.7065986460     
            depth:    11.999999999999996       km
                z:   -11999.999999999996     

   error in location of the source:    9.31329680E-10  m



 maximum error in location of the sources:    9.31329680E-10  m


 Elapsed time for detection of sources in seconds =    1.2359857559204102E-002

 End of source detection - done


 Each source is being convolved with HDUR_MOVIE =    0.0000000000000000     


 printing the source-time function

 receivers:

 there are          406  stations in file ./DATA/STATIONS
 saving          306  stations inside the model in file ./DATA/STATIONS_FILTERED
 excluding          100  stations located outside the model


 Total number of receivers =          306


 ********************
  locating receivers
 ********************

 reading receiver information from ./DATA/STATIONS_FILTERED file


 station #            1     DB    S01
      original latitude:   -15.1300001    
      original longitude:   -171.970001    
      original UTM x:    395776.688    
      original UTM y:    8327079.50    
      original depth:   -0.00000000      m
      horizontal distance km:    9.31322619E-13
      target x, y, z:    395776.688       8327079.50       0.00000000    
      closest estimate found:    0.00000000      m away

      receiver located in slice           23
                       in element          168
                       in acoustic domain
      at coordinates: 
      xi    =   -1.0000000000000000     
      eta   =    2.0659864787012338E-004
      gamma =    8.6008235812187198E-006
      rotation matrix: 
      nu1 =    1.00000000       0.00000000       0.00000000    
      nu2 =    0.00000000       1.00000000       0.00000000    
      nu3 =    0.00000000       0.00000000       1.00000000    
      UTM x:    395776.69610082358     
      UTM y:    8327079.7065986469     
      depth:    0.0000000000000000       m
      z:    0.0000000000000000     



 station #            2     DB    S02
      original latitude:   -15.1225004    
      original longitude:   -171.988998    
      original UTM x:    393731.281    
      original UTM y:    8327900.00    
      original depth:   -0.00000000      m
      horizontal distance km:    2.20384574    
      target x, y, z:    393731.281       8327900.00       0.00000000    
      closest estimate found:    0.00000000      m away

      receiver located in slice           23
                       in element          155
                       in acoustic domain
      at coordinates: 
      xi    =   -1.0000000000000000     
      eta   =   0.82074124205606191     
      gamma =   -4.5390785506693648E-002
      rotation matrix: 
      nu1 =    1.00000000       0.00000000       0.00000000    
      nu2 =    0.00000000       1.00000000       0.00000000    
      nu3 =    0.00000000       0.00000000       1.00000000    
      UTM x:    393731.29671449331     
      UTM y:    8327900.2412420558     
      depth:    0.0000000000000000       m
      z:    0.0000000000000000     



 station #            3     DB    S03
      original latitude:   -15.1148996    
      original longitude:   -172.007996    
      original UTM x:    391685.688    
      original UTM y:    8328731.50    
      original depth:   -0.00000000      m
      horizontal distance km:    4.41194677    
      target x, y, z:    391685.688       8328731.50       0.00000000    
      closest estimate found:    0.00000000      m away

      receiver located in slice           23
                       in element          337
                       in acoustic domain
      at coordinates: 
      xi    =    1.0000000000000000     
      eta   =  -0.34783113872632387     
      gamma =   -9.0992907387437302E-002
      rotation matrix: 
      nu1 =    1.00000000       0.00000000       0.00000000    
      nu2 =    0.00000000       1.00000000       0.00000000    
      nu3 =    0.00000000       0.00000000       1.00000000    
      UTM x:    391685.69459261256     
      UTM y:    8328731.6688612737     
      depth:    0.0000000000000000       m
      z:    0.0000000000000000     



 station #            4     DB    S04
      original latitude:   -15.1073999    
      original longitude:   -172.028000    
      original UTM x:    389532.531    
      original UTM y:    8329551.50    
      original depth:   -0.00000000      m
      horizontal distance km:    6.71556425    
      target x, y, z:    389532.531       8329551.50       0.00000000    
      closest estimate found:    0.00000000      m away

      receiver located in slice           23
                       in element          131
                       in acoustic domain
      at coordinates: 
      xi    =   -1.0000000000000000     
      eta   =   0.47186341218676298     
      gamma =  -0.24416594382154999     
      rotation matrix: 
      nu1 =    1.00000000       0.00000000       0.00000000    
      nu2 =    0.00000000       1.00000000       0.00000000    
      nu3 =    0.00000000       0.00000000       1.00000000    
      UTM x:    389532.52155617840     
      UTM y:    8329551.3634121865     
      depth:    0.0000000000000000       m
      z:    0.0000000000000000     



 station #            5     DB    S05
      original latitude:   -15.0998001    
      original longitude:   -172.046997    
      original UTM x:    387486.594    
      original UTM y:    8330382.50    
      original depth:   -0.00000000      m
      horizontal distance km:    8.92376804    
      target x, y, z:    387486.594       8330382.50       0.00000000    
      closest estimate found:    0.00000000      m away

      receiver located in slice           23
                       in element          238
                       in acoustic domain
      at coordinates: 
      xi    =    1.0000000000000000     
      eta   =  -0.69705519384890802     
      gamma =  -0.29007950347487349     
      rotation matrix: 
      nu1 =    1.00000000       0.00000000       0.00000000    
      nu2 =    0.00000000       1.00000000       0.00000000    
      nu3 =    0.00000000       0.00000000       1.00000000    
      UTM x:    387486.60799652513     
      UTM y:    8330382.4448061511     
      depth:    0.0000000000000000       m
      z:    0.0000000000000000     



 station #            6     DB    S06
      original latitude:   -15.0923004    
      original longitude:   -172.065994    
      original UTM x:    385440.594    
      original UTM y:    8331202.50    
      original depth:   -0.00000000      m
      horizontal distance km:    11.1279268    
      target x, y, z:    385440.594       8331202.50       0.00000000    
      closest estimate found:    9.31322575E-10  m away

      receiver located in slice           23
                       in element          192
                       in acoustic domain
      at coordinates: 
      xi    =    1.0000000000000000     
      eta   =   0.12279586708080024     
      gamma =  -0.33609360958798790     
      rotation matrix: 
      nu1 =    1.00000000       0.00000000       0.00000000    
      nu2 =    0.00000000       1.00000000       0.00000000    
      nu3 =    0.00000000       0.00000000       1.00000000    
      UTM x:    385440.59389041201     
      UTM y:    8331202.2958670799     
      depth:    0.0000000000000000       m
      z:    0.0000000000000000     



 station #            7     DB    S07
      original latitude:   -15.0846996    
      original longitude:   -172.085007    
      original UTM x:    383394.375    
      original UTM y:    8332033.00    
      original depth:   -0.00000000      m
      horizontal distance km:    13.3363209    
      target x, y, z:    383394.375       8332033.00       0.00000000    
      closest estimate found:    0.00000000      m away

      receiver located in slice           23
                       in element          186
                       in acoustic domain
      at coordinates: 
      xi    =    1.0000000000000000     
      eta   =   0.95354106391314419     
      gamma =  -0.38231461762136315     
      rotation matrix: 
      nu1 =    1.00000000       0.00000000       0.00000000    
      nu2 =    0.00000000       1.00000000       0.00000000    
      nu3 =    0.00000000       0.00000000       1.00000000    
      UTM x:    383394.37288237864     
      UTM y:    8332033.0410639131     
      depth:    0.0000000000000000       m
      z:    0.0000000000000000     



 station #            8     DB    S08
      original latitude:   -15.0771999    
      original longitude:   -172.104004    
      original UTM x:    381348.062    
      original UTM y:    8332852.50    
      original depth:   -0.00000000      m
      horizontal distance km:    15.5406418    
      target x, y, z:    381348.062       8332852.50       0.00000000    
      closest estimate found:    0.00000000      m away

      receiver located in slice           21
                       in element          175
                       in acoustic domain
      at coordinates: 
      xi    =   -1.0000000000000000     
      eta   =  -0.22694370247232101     
      gamma =  -0.42863450452204915     
      rotation matrix: 
      nu1 =    1.00000000       0.00000000       0.00000000    
      nu2 =    0.00000000       1.00000000       0.00000000    
      nu3 =    0.00000000       0.00000000       1.00000000    
      UTM x:    381348.05299547792     
      UTM y:    8332852.5562975276     
      depth:    0.0000000000000000       m
      z:    0.0000000000000000     



 station #            9     DB    S09
      original latitude:   -15.0696001    
      original longitude:   -172.123001    
      original UTM x:    379301.531    
      original UTM y:    8333683.00    
      original depth:   -0.00000000      m
      horizontal distance km:    17.7492065    
      target x, y, z:    379301.531       8333683.00       0.00000000    
      closest estimate found:    1.16415322E-10  m away

      receiver located in slice           21
                       in element          164
                       in acoustic domain
      at coordinates: 
      xi    =   -1.0000000000000000     
      eta   =   0.60346624795933401     
      gamma =  -0.47516334241410141     
      rotation matrix: 
      nu1 =    1.00000000       0.00000000       0.00000000    
      nu2 =    0.00000000       1.00000000       0.00000000    
      nu3 =    0.00000000       0.00000000       1.00000000    
      UTM x:    379301.52415758593     
      UTM y:    8333682.9662479591     
      depth:    0.0000000000000000       m
      z:    0.0000000000000000     



 station #           10     DB    S10
      original latitude:   -15.0621004    
      original longitude:   -172.143005    
      original UTM x:    377147.406    
      original UTM y:    8334501.50    
      original depth:   -0.00000000      m
      horizontal distance km:    20.0533009    
      target x, y, z:    377147.406       8334501.50       0.00000000    
      closest estimate found:    0.00000000      m away

      receiver located in slice           21
                       in element          154
                       in acoustic domain
      at coordinates: 
      xi    =   -1.0000000000000000     
      eta   =  -0.57791049471057543     
      gamma =  -0.62928438359938221     
      rotation matrix: 
      nu1 =    1.00000000       0.00000000       0.00000000    
      nu2 =    0.00000000       1.00000000       0.00000000    
      nu3 =    0.00000000       0.00000000       1.00000000    
      UTM x:    377147.40311640059     
      UTM y:    8334501.5895052897     
      depth:    0.0000000000000000       m
      z:    0.0000000000000000     



 station #           11     DB    S11
      original latitude:   -15.0544996    
      original longitude:   -172.162003    
      original UTM x:    375100.562    
      original UTM y:    8335331.50    
      original depth:   -0.00000000      m
      horizontal distance km:    22.2620125    
      target x, y, z:    375100.562       8335331.50       0.00000000    
      closest estimate found:    0.00000000      m away

      receiver located in slice           21
                       in element          294
                       in acoustic domain
      at coordinates: 
      xi    =    1.0000000000000000     
      eta   =   0.25215614858642221     
      gamma =  -0.67612587339343733     
      rotation matrix: 
      nu1 =    1.00000000       0.00000000       0.00000000    
      nu2 =    0.00000000       1.00000000       0.00000000    
      nu3 =    0.00000000       0.00000000       1.00000000    
      UTM x:    375100.56162660656     
      UTM y:    8335331.6561485864     
      depth:    0.0000000000000000       m
      z:    0.0000000000000000     



 station #           12     DB    S12
      original latitude:   -15.0469999    
      original longitude:   -172.181000    
      original UTM x:    373053.625    
      original UTM y:    8336150.50    
      original depth:   -0.00000000      m
      horizontal distance km:    24.4666538    
      target x, y, z:    373053.625       8336150.50       0.00000000    
      closest estimate found:    5.82076609E-11  m away

      receiver located in slice           21
                       in element          133
                       in acoustic domain
      at coordinates: 
      xi    =   -1.0000000000000000     
      eta   =  -0.92900644003785315     
      gamma =  -0.72306287796571034     
      rotation matrix: 
      nu1 =    1.00000000       0.00000000       0.00000000    
      nu2 =    0.00000000       1.00000000       0.00000000    
      nu3 =    0.00000000       0.00000000       1.00000000    
      UTM x:    373053.62462203426     
      UTM y:    8336150.4935599631     
      depth:    0.0000000000000000       m
      z:    0.0000000000000000     



 station #           13     DB    S13
      original latitude:   -15.0394001    
      original longitude:   -172.199997    
      original UTM x:    371006.469    
      original UTM y:    8336980.00    
      original depth:   -0.00000000      m
      horizontal distance km:    26.6755352    
      target x, y, z:    371006.469       8336980.00       0.00000000    
      closest estimate found:    0.00000000      m away

      receiver located in slice           21
                       in element          210
                       in acoustic domain
      at coordinates: 
      xi    =    1.0000000000000000     
      eta   =   -9.9273125522769984E-002
      gamma =  -0.77021298134530658     
      rotation matrix: 
      nu1 =    1.00000000       0.00000000       0.00000000    
      nu2 =    0.00000000       1.00000000       0.00000000    
      nu3 =    0.00000000       0.00000000       1.00000000    
      UTM x:    371006.47451865469     
      UTM y:    8336980.2268744772     
      depth:    0.0000000000000000       m
      z:    0.0000000000000000     



 station #           14     DB    L01
      original latitude:   -15.1300001    
      original longitude:   -171.970001    
      original UTM x:    395776.688    
      original UTM y:    8327079.50    
      original depth:   -10000.0000      m
      horizontal distance km:    9.31322619E-13
      target x, y, z:    395776.688       8327079.50       10000.0000    
      closest estimate found:    0.00000000      m away

      receiver located in slice           19
                       in element          405
                       in acoustic domain
      at coordinates: 
      xi    =   -1.0000000000000000     
      eta   =    2.0659864787012338E-004
      gamma =    8.6008235812187198E-006
      rotation matrix: 
      nu1 =    1.00000000       0.00000000       0.00000000    
      nu2 =    0.00000000       1.00000000       0.00000000    
      nu3 =    0.00000000       0.00000000       1.00000000    
      UTM x:    395776.69610082358     
      UTM y:    8327079.7065986469     
      depth:    10000.000000000000       m
      z:    10000.000000000000     



 station #           15     DB    L02
      original latitude:   -15.1225004    
      original longitude:   -171.988998    
      original UTM x:    393731.281    
      original UTM y:    8327900.00    
      original depth:   -10000.0000      m
      horizontal distance km:    2.20384574    
      target x, y, z:    393731.281       8327900.00       10000.0000    
      closest estimate found:    0.00000000      m away

      receiver located in slice           19
                       in element          334
                       in acoustic domain
      at coordinates: 
      xi    =   -1.0000000000000000     
      eta   =   0.82074124205606191     
      gamma =   -4.5390785506693648E-002
      rotation matrix: 
      nu1 =    1.00000000       0.00000000       0.00000000    
      nu2 =    0.00000000       1.00000000       0.00000000    
      nu3 =    0.00000000       0.00000000       1.00000000    
      UTM x:    393731.29671449331     
      UTM y:    8327900.2412420558     
      depth:    10000.000000000000       m
      z:    10000.000000000000     



 station #           16     DB    L03
      original latitude:   -15.1148996    
      original longitude:   -172.007996    
      original UTM x:    391685.688    
      original UTM y:    8328731.50    
      original depth:   -10000.0000      m
      horizontal distance km:    4.41194677    
      target x, y, z:    391685.688       8328731.50       10000.0000    
      closest estimate found:    1.81898940E-12  m away

      receiver located in slice           19
                       in element          273
                       in acoustic domain
      at coordinates: 
      xi    =    1.0000000000000000     
      eta   =  -0.34783113872632387     
      gamma =   -9.0992907387437302E-002
      rotation matrix: 
      nu1 =    1.00000000       0.00000000       0.00000000    
      nu2 =    0.00000000       1.00000000       0.00000000    
      nu3 =    0.00000000       0.00000000       1.00000000    
      UTM x:    391685.69459261256     
      UTM y:    8328731.6688612737     
      depth:    10000.000000000002       m
      z:    10000.000000000002     



 station #           17     DB    L04
      original latitude:   -15.1073999    
      original longitude:   -172.028000    
      original UTM x:    389532.531    
      original UTM y:    8329551.50    
      original depth:   -10000.0000      m
      horizontal distance km:    6.71556425    
      target x, y, z:    389532.531       8329551.50       10000.0000    
      closest estimate found:    0.00000000      m away

      receiver located in slice           19
                       in element          202
                       in acoustic domain
      at coordinates: 
      xi    =    1.0000000000000000     
      eta   =   0.47186341218650341     
      gamma =  -0.24416594382160112     
      rotation matrix: 
      nu1 =    1.00000000       0.00000000       0.00000000    
      nu2 =    0.00000000       1.00000000       0.00000000    
      nu3 =    0.00000000       0.00000000       1.00000000    
      UTM x:    389532.52155617840     
      UTM y:    8329551.3634121865     
      depth:    10000.000000000000       m
      z:    10000.000000000000     



 station #           18     DB    L05
      original latitude:   -15.0998001    
      original longitude:   -172.046997    
      original UTM x:    387486.594    
      original UTM y:    8330382.50    
      original depth:   -10000.0000      m
      horizontal distance km:    8.92376804    
      target x, y, z:    387486.594       8330382.50       10000.0000    
      closest estimate found:    0.00000000      m away

      receiver located in slice           19
                       in element          140
                       in acoustic domain
      at coordinates: 
      xi    =    1.0000000000000000     
      eta   =  -0.69705519384890802     
      gamma =  -0.29007950347487349     
      rotation matrix: 
      nu1 =    1.00000000       0.00000000       0.00000000    
      nu2 =    0.00000000       1.00000000       0.00000000    
      nu3 =    0.00000000       0.00000000       1.00000000    
      UTM x:    387486.60799652513     
      UTM y:    8330382.4448061511     
      depth:    10000.000000000000       m
      z:    10000.000000000000     



 station #           19     DB    L06
      original latitude:   -15.0923004    
      original longitude:   -172.065994    
      original UTM x:    385440.594    
      original UTM y:    8331202.50    
      original depth:   -10000.0000      m
      horizontal distance km:    11.1279268    
      target x, y, z:    385440.594       8331202.50       10000.0000    
      closest estimate found:    9.31322575E-10  m away

      receiver located in slice           19
                       in element           83
                       in acoustic domain
      at coordinates: 
      xi    =    1.0000000000000000     
      eta   =   0.12279586708080024     
      gamma =  -0.33609360958798790     
      rotation matrix: 
      nu1 =    1.00000000       0.00000000       0.00000000    
      nu2 =    0.00000000       1.00000000       0.00000000    
      nu3 =    0.00000000       0.00000000       1.00000000    
      UTM x:    385440.59389041201     
      UTM y:    8331202.2958670799     
      depth:    10000.000000000000       m
      z:    10000.000000000000     



 station #           20     DB    L07
      original latitude:   -15.0846996    
      original longitude:   -172.085007    
      original UTM x:    383394.375    
      original UTM y:    8332033.00    
      original depth:   -10000.0000      m
      horizontal distance km:    13.3363209    
      target x, y, z:    383394.375       8332033.00       10000.0000    
      closest estimate found:    0.00000000      m away

      receiver located in slice           19
                       in element           48
                       in acoustic domain
      at coordinates: 
      xi    =    1.0000000000000000     
      eta   =   0.95354106391314419     
      gamma =  -0.38231461762136315     
      rotation matrix: 
      nu1 =    1.00000000       0.00000000       0.00000000    
      nu2 =    0.00000000       1.00000000       0.00000000    
      nu3 =    0.00000000       0.00000000       1.00000000    
      UTM x:    383394.37288237864     
      UTM y:    8332033.0410639131     
      depth:    10000.000000000000       m
      z:    10000.000000000000     



 station #           21     DB    L08
      original latitude:   -15.0771999    
      original longitude:   -172.104004    
      original UTM x:    381348.062    
      original UTM y:    8332852.50    
      original depth:   -10000.0000      m
      horizontal distance km:    15.5406418    
      target x, y, z:    381348.062       8332852.50       10000.0000    
      closest estimate found:    0.00000000      m away

      receiver located in slice           19
                       in element           25
                       in acoustic domain
      at coordinates: 
      xi    =    1.0000000000000000     
      eta   =  -0.22694370247237386     
      gamma =  -0.42863450452208052     
      rotation matrix: 
      nu1 =    1.00000000       0.00000000       0.00000000    
      nu2 =    0.00000000       1.00000000       0.00000000    
      nu3 =    0.00000000       0.00000000       1.00000000    
      UTM x:    381348.05299547792     
      UTM y:    8332852.5562975276     
      depth:    10000.000000000000       m
      z:    10000.000000000000     



 station #           22     DB    L09
      original latitude:   -15.0696001    
      original longitude:   -172.123001    
      original UTM x:    379301.531    
      original UTM y:    8333683.00    
      original depth:   -10000.0000      m
      horizontal distance km:    17.7492065    
      target x, y, z:    379301.531       8333683.00       10000.0000    
      closest estimate found:    0.00000000      m away

      receiver located in slice           19
                       in element           11
                       in acoustic domain
      at coordinates: 
      xi    =   -1.0000000000000002     
      eta   =   0.60346624795933390     
      gamma =  -0.47516334241415958     
      rotation matrix: 
      nu1 =    1.00000000       0.00000000       0.00000000    
      nu2 =    0.00000000       1.00000000       0.00000000    
      nu3 =    0.00000000       0.00000000       1.00000000    
      UTM x:    379301.52415758581     
      UTM y:    8333682.9662479591     
      depth:    10000.000000000000       m
      z:    10000.000000000000     



 station #           23     DB    L10
      original latitude:   -15.0621004    
      original longitude:   -172.143005    
      original UTM x:    377147.406    
      original UTM y:    8334501.50    
      original depth:   -10000.0000      m
      horizontal distance km:    20.0533009    
      target x, y, z:    377147.406       8334501.50       10000.0000    
      closest estimate found:    0.00000000      m away

      receiver located in slice           18
                       in element          255
                       in acoustic domain
      at coordinates: 
      xi    =   -1.0000000000000000     
      eta   =  -0.57791049471057543     
      gamma =  -0.62928438359938221     
      rotation matrix: 
      nu1 =    1.00000000       0.00000000       0.00000000    
      nu2 =    0.00000000       1.00000000       0.00000000    
      nu3 =    0.00000000       0.00000000       1.00000000    
      UTM x:    377147.40311640059     
      UTM y:    8334501.5895052897     
      depth:    10000.000000000000       m
      z:    10000.000000000000     



 station #           24     DB    L11
      original latitude:   -15.0544996    
      original longitude:   -172.162003    
      original UTM x:    375100.562    
      original UTM y:    8335331.50    
      original depth:   -10000.0000      m
      horizontal distance km:    22.2620125    
      target x, y, z:    375100.562       8335331.50       10000.0000    
      closest estimate found:    0.00000000      m away

      receiver located in slice           18
                       in element          185
                       in acoustic domain
      at coordinates: 
      xi    =    1.0000000000000000     
      eta   =   0.25215614858642221     
      gamma =  -0.67612587339343733     
      rotation matrix: 
      nu1 =    1.00000000       0.00000000       0.00000000    
      nu2 =    0.00000000       1.00000000       0.00000000    
      nu3 =    0.00000000       0.00000000       1.00000000    
      UTM x:    375100.56162660656     
      UTM y:    8335331.6561485864     
      depth:    10000.000000000000       m
      z:    10000.000000000000     



 station #           25     DB    L12
      original latitude:   -15.0469999    
      original longitude:   -172.181000    
      original UTM x:    373053.625    
      original UTM y:    8336150.50    
      original depth:   -10000.0000      m
      horizontal distance km:    24.4666538    
      target x, y, z:    373053.625       8336150.50       10000.0000    
      closest estimate found:    9.33141564E-10  m away

      receiver located in slice           18
                       in element          128
                       in acoustic domain
      at coordinates: 
      xi    =  -0.99999999999999989     
      eta   =  -0.92900644003599053     
      gamma =  -0.72306287796571034     
      rotation matrix: 
      nu1 =    1.00000000       0.00000000       0.00000000    
      nu2 =    0.00000000       1.00000000       0.00000000    
      nu3 =    0.00000000       0.00000000       1.00000000    
      UTM x:    373053.62462203437     
      UTM y:    8336150.4935599640     
      depth:    10000.000000000002       m
      z:    10000.000000000002     



 station #           26     DB    L13
      original latitude:   -15.0394001    
      original longitude:   -172.199997    
      original UTM x:    371006.469    
      original UTM y:    8336980.00    
      original depth:   -10000.0000      m
      horizontal distance km:    26.6755352    
      target x, y, z:    371006.469       8336980.00       10000.0000    
      closest estimate found:    0.00000000      m away

      receiver located in slice           18
                       in element           59
                       in acoustic domain
      at coordinates: 
      xi    =    1.0000000000000000     
      eta   =   -9.9273125522769984E-002
      gamma =  -0.77021298134530658     
      rotation matrix: 
      nu1 =    1.00000000       0.00000000       0.00000000    
      nu2 =    0.00000000       1.00000000       0.00000000    
      nu3 =    0.00000000       0.00000000       1.00000000    
      UTM x:    371006.47451865469     
      UTM y:    8336980.2268744772     
      depth:    10000.000000000000       m
      z:    10000.000000000000     



 station #           27     DB    M01
      original latitude:   -15.1300001    
      original longitude:   -171.970001    
      original UTM x:    395776.688    
      original UTM y:    8327079.50    
      original depth:   -20000.0000      m
      horizontal distance km:    9.31322619E-13
      target x, y, z:    395776.688       8327079.50       20000.0000    
      closest estimate found:    0.00000000      m away

      receiver located in slice           19
                       in element          399
                       in acoustic domain
      at coordinates: 
      xi    =    1.0000000000000000     
      eta   =    2.0659864787012338E-004
      gamma =    8.6008235812187198E-006
      rotation matrix: 
      nu1 =    1.00000000       0.00000000       0.00000000    
      nu2 =    0.00000000       1.00000000       0.00000000    
      nu3 =    0.00000000       0.00000000       1.00000000    
      UTM x:    395776.69610082358     
      UTM y:    8327079.7065986469     
      depth:    20000.000000000000       m
      z:    20000.000000000000     



 station #           28     DB    M02
      original latitude:   -15.1225004    
      original longitude:   -171.988998    
      original UTM x:    393731.281    
      original UTM y:    8327900.00    
      original depth:   -20000.0000      m
      horizontal distance km:    2.20384574    
      target x, y, z:    393731.281       8327900.00       20000.0000    
      closest estimate found:    0.00000000      m away

      receiver located in slice           19
                       in element          328
                       in acoustic domain
      at coordinates: 
      xi    =    1.0000000000000000     
      eta   =   0.82074124205606191     
      gamma =   -4.5390785506693648E-002
      rotation matrix: 
      nu1 =    1.00000000       0.00000000       0.00000000    
      nu2 =    0.00000000       1.00000000       0.00000000    
      nu3 =    0.00000000       0.00000000       1.00000000    
      UTM x:    393731.29671449331     
      UTM y:    8327900.2412420558     
      depth:    20000.000000000000       m
      z:    20000.000000000000     



 station #           29     DB    M03
      original latitude:   -15.1148996    
      original longitude:   -172.007996    
      original UTM x:    391685.688    
      original UTM y:    8328731.50    
      original depth:   -20000.0000      m
      horizontal distance km:    4.41194677    
      target x, y, z:    391685.688       8328731.50       20000.0000    
      closest estimate found:    9.31329680E-10  m away

      receiver located in slice           19
                       in element          269
                       in acoustic domain
      at coordinates: 
      xi    =  -0.99999999999999634     
      eta   =  -0.34783113872632387     
      gamma =   -9.0992907387437302E-002
      rotation matrix: 
      nu1 =    1.00000000       0.00000000       0.00000000    
      nu2 =    0.00000000       1.00000000       0.00000000    
      nu3 =    0.00000000       0.00000000       1.00000000    
      UTM x:    391685.69459261256     
      UTM y:    8328731.6688612746     
      depth:    19999.999999999996       m
      z:    19999.999999999996     



 station #           30     DB    M04
      original latitude:   -15.1073999    
      original longitude:   -172.028000    
      original UTM x:    389532.531    
      original UTM y:    8329551.50    
      original depth:   -20000.0000      m
      horizontal distance km:    6.71556425    
      target x, y, z:    389532.531       8329551.50       20000.0000    
      closest estimate found:    0.00000000      m away

      receiver located in slice           19
                       in element          197
                       in acoustic domain
      at coordinates: 
      xi    =    1.0000000000000004     
      eta   =   0.47186341218769429     
      gamma =  -0.24416594382160819     
      rotation matrix: 
      nu1 =    1.00000000       0.00000000       0.00000000    
      nu2 =    0.00000000       1.00000000       0.00000000    
      nu3 =    0.00000000       0.00000000       1.00000000    
      UTM x:    389532.52155617840     
      UTM y:    8329551.3634121865     
      depth:    20000.000000000000       m
      z:    20000.000000000000     



 station #           31     DB    M05
      original latitude:   -15.0998001    
      original longitude:   -172.046997    
      original UTM x:    387486.594    
      original UTM y:    8330382.50    
      original depth:   -20000.0000      m
      horizontal distance km:    8.92376804    
      target x, y, z:    387486.594       8330382.50       20000.0000    
      closest estimate found:    0.00000000      m away

      receiver located in slice           19
                       in element          136
                       in acoustic domain
      at coordinates: 
      xi    =   -1.0000000000000000     
      eta   =  -0.69705519384890802     
      gamma =  -0.29007950347487349     
      rotation matrix: 
      nu1 =    1.00000000       0.00000000       0.00000000    
      nu2 =    0.00000000       1.00000000       0.00000000    
      nu3 =    0.00000000       0.00000000       1.00000000    
      UTM x:    387486.60799652513     
      UTM y:    8330382.4448061511     
      depth:    20000.000000000000       m
      z:    20000.000000000000     



 station #           32     DB    M06
      original latitude:   -15.0923004    
      original longitude:   -172.065994    
      original UTM x:    385440.594    
      original UTM y:    8331202.50    
      original depth:   -20000.0000      m
      horizontal distance km:    11.1279268    
      target x, y, z:    385440.594       8331202.50       20000.0000    
      closest estimate found:    9.31322575E-10  m away

      receiver located in slice           18
                       in element          456
                       in acoustic domain
      at coordinates: 
      xi    =   -1.0000000000000000     
      eta   =   0.12279586708080024     
      gamma =  -0.33609360958798790     
      rotation matrix: 
      nu1 =    1.00000000       0.00000000       0.00000000    
      nu2 =    0.00000000       1.00000000       0.00000000    
      nu3 =    0.00000000       0.00000000       1.00000000    
      UTM x:    385440.59389041201     
      UTM y:    8331202.2958670799     
      depth:    20000.000000000000       m
      z:    20000.000000000000     



 station #           33     DB    M07
      original latitude:   -15.0846996    
      original longitude:   -172.085007    
      original UTM x:    383394.375    
      original UTM y:    8332033.00    
      original depth:   -20000.0000      m
      horizontal distance km:    13.3363209    
      target x, y, z:    383394.375       8332033.00       20000.0000    
      closest estimate found:    0.00000000      m away

      receiver located in slice           18
                       in element          412
                       in acoustic domain
      at coordinates: 
      xi    =   -1.0000000000000000     
      eta   =   0.95354106391314419     
      gamma =  -0.38231461762136315     
      rotation matrix: 
      nu1 =    1.00000000       0.00000000       0.00000000    
      nu2 =    0.00000000       1.00000000       0.00000000    
      nu3 =    0.00000000       0.00000000       1.00000000    
      UTM x:    383394.37288237864     
      UTM y:    8332033.0410639131     
      depth:    20000.000000000000       m
      z:    20000.000000000000     



 station #           34     DB    M08
      original latitude:   -15.0771999    
      original longitude:   -172.104004    
      original UTM x:    381348.062    
      original UTM y:    8332852.50    
      original depth:   -20000.0000      m
      horizontal distance km:    15.5406418    
      target x, y, z:    381348.062       8332852.50       20000.0000    
      closest estimate found:    0.00000000      m away

      receiver located in slice           18
                       in element          369
                       in acoustic domain
      at coordinates: 
      xi    =   -1.0000000000000000     
      eta   =  -0.22694370247237386     
      gamma =  -0.42863450452208052     
      rotation matrix: 
      nu1 =    1.00000000       0.00000000       0.00000000    
      nu2 =    0.00000000       1.00000000       0.00000000    
      nu3 =    0.00000000       0.00000000       1.00000000    
      UTM x:    381348.05299547792     
      UTM y:    8332852.5562975276     
      depth:    20000.000000000000       m
      z:    20000.000000000000     



 station #           35     DB    M09
      original latitude:   -15.0696001    
      original longitude:   -172.123001    
      original UTM x:    379301.531    
      original UTM y:    8333683.00    
      original depth:   -20000.0000      m
      horizontal distance km:    17.7492065    
      target x, y, z:    379301.531       8333683.00       20000.0000    
      closest estimate found:    9.31322575E-10  m away

      receiver located in slice           18
                       in element          306
                       in acoustic domain
      at coordinates: 
      xi    =    1.0000000000000033     
      eta   =   0.60346624795840265     
      gamma =  -0.47516334241427605     
      rotation matrix: 
      nu1 =    1.00000000       0.00000000       0.00000000    
      nu2 =    0.00000000       1.00000000       0.00000000    
      nu3 =    0.00000000       0.00000000       1.00000000    
      UTM x:    379301.52415758581     
      UTM y:    8333682.9662479600     
      depth:    20000.000000000000       m
      z:    20000.000000000000     



 station #           36     DB    M10
      original latitude:   -15.0621004    
      original longitude:   -172.143005    
      original UTM x:    377147.406    
      original UTM y:    8334501.50    
      original depth:   -20000.0000      m
      horizontal distance km:    20.0533009    
      target x, y, z:    377147.406       8334501.50       20000.0000    
      closest estimate found:    0.00000000      m away

      receiver located in slice           18
                       in element          249
                       in acoustic domain
      at coordinates: 
      xi    =    1.0000000000000000     
      eta   =  -0.57791049471057543     
      gamma =  -0.62928438359938221     
      rotation matrix: 
      nu1 =    1.00000000       0.00000000       0.00000000    
      nu2 =    0.00000000       1.00000000       0.00000000    
      nu3 =    0.00000000       0.00000000       1.00000000    
      UTM x:    377147.40311640059     
      UTM y:    8334501.5895052897     
      depth:    20000.000000000000       m
      z:    20000.000000000000     



 station #           37     DB    M11
      original latitude:   -15.0544996    
      original longitude:   -172.162003    
      original UTM x:    375100.562    
      original UTM y:    8335331.50    
      original depth:   -20000.0000      m
      horizontal distance km:    22.2620125    
      target x, y, z:    375100.562       8335331.50       20000.0000    
      closest estimate found:    0.00000000      m away

      receiver located in slice           18
                       in element          181
                       in acoustic domain
      at coordinates: 
      xi    =   -1.0000000000000000     
      eta   =   0.25215614858642221     
      gamma =  -0.67612587339343733     
      rotation matrix: 
      nu1 =    1.00000000       0.00000000       0.00000000    
      nu2 =    0.00000000       1.00000000       0.00000000    
      nu3 =    0.00000000       0.00000000       1.00000000    
      UTM x:    375100.56162660656     
      UTM y:    8335331.6561485864     
      depth:    20000.000000000000       m
      z:    20000.000000000000     



 station #           38     DB    M12
      original latitude:   -15.0469999    
      original longitude:   -172.181000    
      original UTM x:    373053.625    
      original UTM y:    8336150.50    
      original depth:   -20000.0000      m
      horizontal distance km:    24.4666538    
      target x, y, z:    373053.625       8336150.50       20000.0000    
      closest estimate found:    9.38570333E-10  m away

      receiver located in slice           18
                       in element          123
                       in acoustic domain
      at coordinates: 
      xi    =   -1.0000000000000000     
      eta   =  -0.92900644003693011     
      gamma =  -0.72306287796568358     
      rotation matrix: 
      nu1 =    1.00000000       0.00000000       0.00000000    
      nu2 =    0.00000000       1.00000000       0.00000000    
      nu3 =    0.00000000       0.00000000       1.00000000    
      UTM x:    373053.62462203443     
      UTM y:    8336150.4935599640     
      depth:    20000.000000000000       m
      z:    20000.000000000000     



 station #           39     DB    M13
      original latitude:   -15.0394001    
      original longitude:   -172.199997    
      original UTM x:    371006.469    
      original UTM y:    8336980.00    
      original depth:   -20000.0000      m
      horizontal distance km:    26.6755352    
      target x, y, z:    371006.469       8336980.00       20000.0000    
      closest estimate found:    0.00000000      m away

      receiver located in slice           18
                       in element           55
                       in acoustic domain
      at coordinates: 
      xi    =   -1.0000000000000000     
      eta   =   -9.9273125522769984E-002
      gamma =  -0.77021298134530658     
      rotation matrix: 
      nu1 =    1.00000000       0.00000000       0.00000000    
      nu2 =    0.00000000       1.00000000       0.00000000    
      nu3 =    0.00000000       0.00000000       1.00000000    
      UTM x:    371006.47451865469     
      UTM y:    8336980.2268744772     
      depth:    20000.000000000000       m
      z:    20000.000000000000     



 station #           40     CC    S13
      original latitude:   -15.0812998    
      original longitude:   -171.737000    
      original UTM x:    420795.125    
      original UTM y:    8332564.00    
      original depth:   -0.00000000      m
      horizontal distance km:    25.6124477    
      target x, y, z:    420795.125       8332564.00       0.00000000    
      closest estimate found:    8.42301559      m away

      receiver located in slice           29
                       in element          361
                       in acoustic domain
      at coordinates: 
      xi    =   -1.0000000000000000     
      eta   =  -0.51559576841537003     
      gamma =    1.0100000000000000     
      rotation matrix: 
      nu1 =    1.00000000       0.00000000       0.00000000    
      nu2 =    0.00000000       1.00000000       0.00000000    
      nu3 =    0.00000000       0.00000000       1.00000000    
      UTM x:    420786.68750000000     
      UTM y:    8332563.9042315837     
      depth:    0.0000000000000000       m
      z:    0.0000000000000000     



 station #           41     CC    S14
      original latitude:   -15.0774002    
      original longitude:   -171.738007    
      original UTM x:    420686.188    
      original UTM y:    8332995.00    
      original depth:   -0.00000000      m
      horizontal distance km:    25.6022034    
      target x, y, z:    420686.188       8332995.00       0.00000000    
      closest estimate found:    0.00000000      m away

      receiver located in slice           29
                       in element          481
                       in acoustic domain
      at coordinates: 
      xi    =    1.0000000000000000     
      eta   =   -8.4566539056599138E-002
      gamma =   0.90950287034409116     
      rotation matrix: 
      nu1 =    1.00000000       0.00000000       0.00000000    
      nu2 =    0.00000000       1.00000000       0.00000000    
      nu3 =    0.00000000       0.00000000       1.00000000    
      UTM x:    420686.19037034409     
      UTM y:    8332994.9334609434     
      depth:    0.0000000000000000       m
      z:    0.0000000000000000     



 station #           42     CC    S15
      original latitude:   -15.0734997    
      original longitude:   -171.738998    
      original UTM x:    420577.281    
      original UTM y:    8333426.00    
      original depth:   -0.00000000      m
      horizontal distance km:    25.5996723    
      target x, y, z:    420577.281       8333426.00       0.00000000    
      closest estimate found:    9.31322575E-10  m away

      receiver located in slice           29
                       in element          361
                       in acoustic domain
      at coordinates: 
      xi    =   -1.0000000000000000     
      eta   =   0.34646222425345330     
      gamma =   0.80057915147423042     
      rotation matrix: 
      nu1 =    1.00000000       0.00000000       0.00000000    
      nu2 =    0.00000000       1.00000000       0.00000000    
      nu3 =    0.00000000       0.00000000       1.00000000    
      UTM x:    420577.26665147423     
      UTM y:    8333425.9622242525     
      depth:    0.0000000000000000       m
      z:    0.0000000000000000     



 station #           43     CC    S16
      original latitude:   -15.0696001    
      original longitude:   -171.740005    
      original UTM x:    420468.344    
      original UTM y:    8333857.00    
      original depth:   -0.00000000      m
      horizontal distance km:    25.6048603    
      target x, y, z:    420468.344       8333857.00       0.00000000    
      closest estimate found:    0.00000000      m away

      receiver located in slice           29
                       in element          481
                       in acoustic domain
      at coordinates: 
      xi    =    1.0000000000000000     
      eta   =   0.77749052190992862     
      gamma =   0.69165186046648652     
      rotation matrix: 
      nu1 =    1.00000000       0.00000000       0.00000000    
      nu2 =    0.00000000       1.00000000       0.00000000    
      nu3 =    0.00000000       0.00000000       1.00000000    
      UTM x:    420468.33936046646     
      UTM y:    8333856.9905219097     
      depth:    0.0000000000000000       m
      z:    0.0000000000000000     



 station #           44     CC    S17
      original latitude:   -15.0656996    
      original longitude:   -171.740997    
      original UTM x:    420359.406    
      original UTM y:    8334288.00    
      original depth:   -0.00000000      m
      horizontal distance km:    25.6177578    
      target x, y, z:    420359.406       8334288.00       0.00000000    
      closest estimate found:    0.00000000      m away

      receiver located in slice           29
                       in element          484
                       in acoustic domain
      at coordinates: 
      xi    =    1.0000000000000000     
      eta   =  -0.79148164569145152     
      gamma =   0.58272099877948824     
      rotation matrix: 
      nu1 =    1.00000000       0.00000000       0.00000000    
      nu2 =    0.00000000       1.00000000       0.00000000    
      nu3 =    0.00000000       0.00000000       1.00000000    
      UTM x:    420359.40849877946     
      UTM y:    8334288.0183543088     
      depth:    0.0000000000000000       m
      z:    0.0000000000000000     



 station #           45     CC    S18
      original latitude:   -15.0619001    
      original longitude:   -171.742004    
      original UTM x:    420250.500    
      original UTM y:    8334708.00    
      original depth:   -0.00000000      m
      horizontal distance km:    25.6350975    
      target x, y, z:    420250.500       8334708.00       0.00000000    
      closest estimate found:    0.00000000      m away

      receiver located in slice           29
                       in element          484
                       in acoustic domain
      at coordinates: 
      xi    =    1.0000000000000000     
      eta   =  -0.37151553131382320     
      gamma =   0.47382379458940072     
      rotation matrix: 
      nu1 =    1.00000000       0.00000000       0.00000000    
      nu2 =    0.00000000       1.00000000       0.00000000    
      nu3 =    0.00000000       0.00000000       1.00000000    
      UTM x:    420250.51129458938     
      UTM y:    8334707.9844686855     
      depth:    0.0000000000000000       m
      z:    0.0000000000000000     



 station #           46     CC    S19
      original latitude:   -15.0580997    
      original longitude:   -171.744003    
      original UTM x:    420034.125    
      original UTM y:    8335127.50    
      original depth:   -0.00000000      m
      horizontal distance km:    25.5576057    
      target x, y, z:    420034.125       8335127.50       0.00000000    
      closest estimate found:    5.82076609E-11  m away

      receiver located in slice           29
                       in element          484
                       in acoustic domain
      at coordinates: 
      xi    =    1.0000000000000000     
      eta   =    4.8087734680622815E-002
      gamma =   0.25743683813099050     
      rotation matrix: 
      nu1 =    1.00000000       0.00000000       0.00000000    
      nu2 =    0.00000000       1.00000000       0.00000000    
      nu3 =    0.00000000       0.00000000       1.00000000    
      UTM x:    420034.12433813105     
      UTM y:    8335127.5877346806     
      depth:    0.0000000000000000       m
      z:    0.0000000000000000     



 station #           47     CC    S20
      original latitude:   -15.0543003    
      original longitude:   -171.744995    
      original UTM x:    419925.219    
      original UTM y:    8335547.50    
      original depth:   -0.00000000      m
      horizontal distance km:    25.5901451    
      target x, y, z:    419925.219       8335547.50       0.00000000    
      closest estimate found:    9.33139788E-10  m away

      receiver located in slice           29
                       in element          484
                       in acoustic domain
      at coordinates: 
      xi    =    1.0000000000000000     
      eta   =   0.46805252213522669     
      gamma =   0.14853073574561859     
      rotation matrix: 
      nu1 =    1.00000000       0.00000000       0.00000000    
      nu2 =    0.00000000       1.00000000       0.00000000    
      nu3 =    0.00000000       0.00000000       1.00000000    
      UTM x:    419925.21823574568     
      UTM y:    8335547.5525221359     
      depth:    0.0000000000000000       m
      z:    0.0000000000000000     



 station #           48     CC    S21
      original latitude:   -15.0504999    
      original longitude:   -171.746002    
      original UTM x:    419816.312    
      original UTM y:    8335967.50    
      original depth:   -0.00000000      m
      horizontal distance km:    25.6299858    
      target x, y, z:    419816.312       8335967.50       0.00000000    
      closest estimate found:    0.00000000      m away

      receiver located in slice           29
                       in element          484
                       in acoustic domain
      at coordinates: 
      xi    =    1.0000000000000000     
      eta   =   0.88801684919185941     
      gamma =    3.9621150529594161E-002
      rotation matrix: 
      nu1 =    1.00000000       0.00000000       0.00000000    
      nu2 =    0.00000000       1.00000000       0.00000000    
      nu3 =    0.00000000       0.00000000       1.00000000    
      UTM x:    419816.30865052959     
      UTM y:    8335967.5168491919     
      depth:    0.0000000000000000       m
      z:    0.0000000000000000     



 station #           49     CC    S22
      original latitude:   -15.0466995    
      original longitude:   -171.748001    
      original UTM x:    419599.906    
      original UTM y:    8336387.00    
      original depth:   -0.00000000      m
      horizontal distance km:    25.5768070    
      target x, y, z:    419599.906       8336387.00       0.00000000    
      closest estimate found:    0.00000000      m away

      receiver located in slice           29
                       in element          487
                       in acoustic domain
      at coordinates: 
      xi    =    1.0000000000000000     
      eta   =  -0.69238337079832035     
      gamma =  -0.17678398486972244     
      rotation matrix: 
      nu1 =    1.00000000       0.00000000       0.00000000    
      nu2 =    0.00000000       1.00000000       0.00000000    
      nu3 =    0.00000000       0.00000000       1.00000000    
      UTM x:    419599.90351513028     
      UTM y:    8336387.1166292019     
      depth:    0.0000000000000000       m
      z:    0.0000000000000000     



 station #           50     CC    S23
      original latitude:   -15.0430002    
      original longitude:   -171.748993    
      original UTM x:    419491.031    
      original UTM y:    8336796.00    
      original depth:   -0.00000000      m
      horizontal distance km:    25.6276417    
      target x, y, z:    419491.031       8336796.00       0.00000000    
      closest estimate found:    0.00000000      m away

      receiver located in slice           29
                       in element          487
                       in acoustic domain
      at coordinates: 
      xi    =    1.0000000000000000     
      eta   =  -0.28348161736689509     
      gamma =  -0.28566492594277954     
      rotation matrix: 
      nu1 =    1.00000000       0.00000000       0.00000000    
      nu2 =    0.00000000       1.00000000       0.00000000    
      nu3 =    0.00000000       0.00000000       1.00000000    
      UTM x:    419491.02257405722     
      UTM y:    8336796.0183826331     
      depth:    0.0000000000000000       m
      z:    0.0000000000000000     



 station #           51     CC    S24
      original latitude:   -15.0393000    
      original longitude:   -171.751007    
      original UTM x:    419274.656    
      original UTM y:    8337204.50    
      original depth:   -0.00000000      m
      horizontal distance km:    25.5864429    
      target x, y, z:    419274.656       8337204.50       0.00000000    
      closest estimate found:    0.00000000      m away

      receiver located in slice           29
                       in element          487
                       in acoustic domain
      at coordinates: 
      xi    =    1.0000000000000000     
      eta   =   0.12505429424905742     
      gamma =  -0.50204510526268642     
      rotation matrix: 
      nu1 =    1.00000000       0.00000000       0.00000000    
      nu2 =    0.00000000       1.00000000       0.00000000    
      nu3 =    0.00000000       0.00000000       1.00000000    
      UTM x:    419274.64239473728     
      UTM y:    8337204.5542942490     
      depth:    0.0000000000000000       m
      z:    0.0000000000000000     



 station #           52     CC    S25
      original latitude:   -15.0355997    
      original longitude:   -171.753006    
      original UTM x:    419058.250    
      original UTM y:    8337613.00    
      original depth:   -0.00000000      m
      horizontal distance km:    25.5535336    
      target x, y, z:    419058.250       8337613.00       0.00000000    
      closest estimate found:    0.00000000      m away

      receiver located in slice           29
                       in element          363
                       in acoustic domain
      at coordinates: 
      xi    =   -1.0000000000000000     
      eta   =   0.53358845245093112     
      gamma =  -0.71843245165684499     
      rotation matrix: 
      nu1 =    1.00000000       0.00000000       0.00000000    
      nu2 =    0.00000000       1.00000000       0.00000000    
      nu3 =    0.00000000       0.00000000       1.00000000    
      UTM x:    419058.25504834316     
      UTM y:    8337613.0884524509     
      depth:    0.0000000000000000       m
      z:    0.0000000000000000     



 station #           53     CC    S26
      original latitude:   -15.0319996    
      original longitude:   -171.755005    
      original UTM x:    418841.906    
      original UTM y:    8338010.50    
      original depth:   -0.00000000      m
      horizontal distance km:    25.5242462    
      target x, y, z:    418841.906       8338010.50       0.00000000    
      closest estimate found:    9.33139788E-10  m away

      receiver located in slice           29
                       in element          487
                       in acoustic domain
      at coordinates: 
      xi    =    1.0000000000000000     
      eta   =   0.93105960567202417     
      gamma =  -0.93478915715042965     
      rotation matrix: 
      nu1 =    1.00000000       0.00000000       0.00000000    
      nu2 =    0.00000000       1.00000000       0.00000000    
      nu3 =    0.00000000       0.00000000       1.00000000    
      UTM x:    418841.89834284957     
      UTM y:    8338010.5596056711     
      depth:    0.0000000000000000       m
      z:    0.0000000000000000     



 station #           54     CC    S27
      original latitude:   -15.0284004    
      original longitude:   -171.755997    
      original UTM x:    418733.031    
      original UTM y:    8338408.50    
      original depth:   -0.00000000      m
      horizontal distance km:    25.5994682    
      target x, y, z:    418733.031       8338408.50       0.00000000    
      closest estimate found:    0.00000000      m away

      receiver located in slice           29
                       in element          469
                       in acoustic domain
      at coordinates: 
      xi    =    1.0000000000000000     
      eta   =  -0.67110292819633965     
      gamma =   0.95634858855034788     
      rotation matrix: 
      nu1 =    1.00000000       0.00000000       0.00000000    
      nu2 =    0.00000000       1.00000000       0.00000000    
      nu3 =    0.00000000       0.00000000       1.00000000    
      UTM x:    418733.03608855035     
      UTM y:    8338408.3970718039     
      depth:    0.0000000000000000       m
      z:    0.0000000000000000     



 station #           55     CC    S28
      original latitude:   -15.0248003    
      original longitude:   -171.757996    
      original UTM x:    418516.656    
      original UTM y:    8338806.00    
      original depth:   -0.00000000      m
      horizontal distance km:    25.5853291    
      target x, y, z:    418516.656       8338806.00       0.00000000    
      closest estimate found:    0.00000000      m away

      receiver located in slice           29
                       in element          469
                       in acoustic domain
      at coordinates: 
      xi    =    1.0000000000000000     
      eta   =  -0.27363438557460906     
      gamma =   0.73997977133947768     
      rotation matrix: 
      nu1 =    1.00000000       0.00000000       0.00000000    
      nu2 =    0.00000000       1.00000000       0.00000000    
      nu3 =    0.00000000       0.00000000       1.00000000    
      UTM x:    418516.66727133945     
      UTM y:    8338805.8656144254     
      depth:    0.0000000000000000       m
      z:    0.0000000000000000     



 station #           56     CC    S29
      original latitude:   -15.0212002    
      original longitude:   -171.759995    
      original UTM x:    418300.281    
      original UTM y:    8339203.50    
      original depth:   -0.00000000      m
      horizontal distance km:    25.5791836    
      target x, y, z:    418300.281       8339203.50       0.00000000    
      closest estimate found:    0.00000000      m away

      receiver located in slice           29
                       in element          469
                       in acoustic domain
      at coordinates: 
      xi    =    1.0000000000000000     
      eta   =   0.12383240672945976     
      gamma =   0.52360397853216034     
      rotation matrix: 
      nu1 =    1.00000000       0.00000000       0.00000000    
      nu2 =    0.00000000       1.00000000       0.00000000    
      nu3 =    0.00000000       0.00000000       1.00000000    
      UTM x:    418300.29147853213     
      UTM y:    8339203.3324067295     
      depth:    0.0000000000000000       m
      z:    0.0000000000000000     



 station #           57     CC    S30
      original latitude:   -15.0177002    
      original longitude:   -171.761993    
      original UTM x:    418083.938    
      original UTM y:    8339589.50    
      original depth:   -0.00000000      m
      horizontal distance km:    25.5756588    
      target x, y, z:    418083.938       8339589.50       0.00000000    
      closest estimate found:    0.00000000      m away

      receiver located in slice           29
                       in element          469
                       in acoustic domain
      at coordinates: 
      xi    =    1.0000000000000000     
      eta   =   0.51023619526930031     
      gamma =   0.30725933306117076     
      rotation matrix: 
      nu1 =    1.00000000       0.00000000       0.00000000    
      nu2 =    0.00000000       1.00000000       0.00000000    
      nu3 =    0.00000000       0.00000000       1.00000000    
      UTM x:    418083.94683306117     
      UTM y:    8339589.7361952690     
      depth:    0.0000000000000000       m
      z:    0.0000000000000000     



 station #           58     CC    S31
      original latitude:   -15.0142002    
      original longitude:   -171.764008    
      original UTM x:    417867.594    
      original UTM y:    8339976.00    
      original depth:   -0.00000000      m
      horizontal distance km:    25.5797920    
      target x, y, z:    417867.594       8339976.00       0.00000000    
      closest estimate found:    0.00000000      m away

      receiver located in slice           29
                       in element          469
                       in acoustic domain
      at coordinates: 
      xi    =    1.0000000000000000     
      eta   =   0.89663823400065301     
      gamma =    9.0907899052603172E-002
      rotation matrix: 
      nu1 =    1.00000000       0.00000000       0.00000000    
      nu2 =    0.00000000       1.00000000       0.00000000    
      nu3 =    0.00000000       0.00000000       1.00000000    
      UTM x:    417867.59539905260     
      UTM y:    8339976.1382340007     
      depth:    0.0000000000000000       m
      z:    0.0000000000000000     



 station #           59     CC    S32
      original latitude:   -15.0108004    
      original longitude:   -171.766006    
      original UTM x:    417651.281    
      original UTM y:    8340351.50    
      original depth:   -0.00000000      m
      horizontal distance km:    25.5858765    
      target x, y, z:    417651.281       8340351.50       0.00000000    
      closest estimate found:    9.31322575E-10  m away

      receiver located in slice           30
                       in element          361
                       in acoustic domain
      at coordinates: 
      xi    =   -1.0000000000000000     
      eta   =  -0.72802273291256281     
      gamma =  -0.12541201775119407     
      rotation matrix: 
      nu1 =    1.00000000       0.00000000       0.00000000    
      nu2 =    0.00000000       1.00000000       0.00000000    
      nu3 =    0.00000000       0.00000000       1.00000000    
      UTM x:    417651.27548224881     
      UTM y:    8340351.4772670884     
      depth:    0.0000000000000000       m
      z:    0.0000000000000000     



 station #           60     CC    S33
      original latitude:   -15.0073996    
      original longitude:   -171.768005    
      original UTM x:    417434.938    
      original UTM y:    8340727.00    
      original depth:   -0.00000000      m
      horizontal distance km:    25.5992870    
      target x, y, z:    417434.938       8340727.00       0.00000000    
      closest estimate found:    5.82076609E-11  m away

      receiver located in slice           30
                       in element          361
                       in acoustic domain
      at coordinates: 
      xi    =   -1.0000000000000000     
      eta   =  -0.35268544944562019     
      gamma =  -0.34173853599268478     
      rotation matrix: 
      nu1 =    1.00000000       0.00000000       0.00000000    
      nu2 =    0.00000000       1.00000000       0.00000000    
      nu3 =    0.00000000       0.00000000       1.00000000    
      UTM x:    417434.94896400737     
      UTM y:    8340726.8145505544     
      depth:    0.0000000000000000       m
      z:    0.0000000000000000     



 station #           61     CC    S34
      original latitude:   -15.0039997    
      original longitude:   -171.770996    
      original UTM x:    417111.094    
      original UTM y:    8341102.00    
      original depth:   -0.00000000      m
      horizontal distance km:    25.5298901    
      target x, y, z:    417111.094       8341102.00       0.00000000    
      closest estimate found:    9.31322575E-10  m away

      receiver located in slice           30
                       in element          413
                       in acoustic domain
      at coordinates: 
      xi    =    1.0000000000000000     
      eta   =    2.2275758936993448E-002
      gamma =  -0.66558559866461797     
      rotation matrix: 
      nu1 =    1.00000000       0.00000000       0.00000000    
      nu2 =    0.00000000       1.00000000       0.00000000    
      nu3 =    0.00000000       0.00000000       1.00000000    
      UTM x:    417111.10190133541     
      UTM y:    8341101.7757589379     
      depth:    0.0000000000000000       m
      z:    0.0000000000000000     



 station #           62     CC    S35
      original latitude:   -15.0005999    
      original longitude:   -171.772995    
      original UTM x:    416894.750    
      original UTM y:    8341477.00    
      original depth:   -0.00000000      m
      horizontal distance km:    25.5589085    
      target x, y, z:    416894.750       8341477.00       0.00000000    
      closest estimate found:    5.82076609E-11  m away

      receiver located in slice           30
                       in element          361
                       in acoustic domain
      at coordinates: 
      xi    =   -1.0000000000000000     
      eta   =   0.39760865215025842     
      gamma =  -0.88192705749551537     
      rotation matrix: 
      nu1 =    1.00000000       0.00000000       0.00000000    
      nu2 =    0.00000000       1.00000000       0.00000000    
      nu3 =    0.00000000       0.00000000       1.00000000    
      UTM x:    416894.76044250454     
      UTM y:    8341477.1086521503     
      depth:    0.0000000000000000       m
      z:    0.0000000000000000     



 station #           63     CC    S36
      original latitude:   -14.9973001    
      original longitude:   -171.774994    
      original UTM x:    416678.438    
      original UTM y:    8341841.50    
      original depth:   -0.00000000      m
      horizontal distance km:    25.5888710    
      target x, y, z:    416678.438       8341841.50       0.00000000    
      closest estimate found:    0.00000000      m away

      receiver located in slice           30
                       in element          397
                       in acoustic domain
      at coordinates: 
      xi    =    1.0000000000000000     
      eta   =   0.76187853535108996     
      gamma =   0.90176360819872647     
      rotation matrix: 
      nu1 =    1.00000000       0.00000000       0.00000000    
      nu2 =    0.00000000       1.00000000       0.00000000    
      nu3 =    0.00000000       0.00000000       1.00000000    
      UTM x:    416678.45110819873     
      UTM y:    8341841.3785353508     
      depth:    0.0000000000000000       m
      z:    0.0000000000000000     



 station #           64     CC    S37
      original latitude:   -14.9940996    
      original longitude:   -171.778000    
      original UTM x:    416354.656    
      original UTM y:    8342194.00    
      original depth:   -0.00000000      m
      horizontal distance km:    25.5323429    
      target x, y, z:    416354.656       8342194.00       0.00000000    
      closest estimate found:    0.00000000      m away

      receiver located in slice           30
                       in element          356
                       in acoustic domain
      at coordinates: 
      xi    =   -1.0000000000000000     
      eta   =  -0.88529209670051945     
      gamma =   0.57796762737561957     
      rotation matrix: 
      nu1 =    1.00000000       0.00000000       0.00000000    
      nu2 =    0.00000000       1.00000000       0.00000000    
      nu3 =    0.00000000       0.00000000       1.00000000    
      UTM x:    416354.65512737562     
      UTM y:    8342194.2079032995     
      depth:    0.0000000000000000       m
      z:    0.0000000000000000     



 station #           65     CC    S38
      original latitude:   -14.9909000    
      original longitude:   -171.779999    
      original UTM x:    416138.375    
      original UTM y:    8342547.50    
      original depth:   -0.00000000      m
      horizontal distance km:    25.5704460    
      target x, y, z:    416138.375       8342547.50       0.00000000    
      closest estimate found:    0.00000000      m away

      receiver located in slice           30
                       in element          400
                       in acoustic domain
      at coordinates: 
      xi    =    1.0000000000000000     
      eta   =  -0.53208787312750294     
      gamma =   0.36168282625849524     
      rotation matrix: 
      nu1 =    1.00000000       0.00000000       0.00000000    
      nu2 =    0.00000000       1.00000000       0.00000000    
      nu3 =    0.00000000       0.00000000       1.00000000    
      UTM x:    416138.37032625847     
      UTM y:    8342547.4121268727     
      depth:    0.0000000000000000       m
      z:    0.0000000000000000     



 station #           66     CC    S39
      original latitude:   -14.9877005    
      original longitude:   -171.783005    
      original UTM x:    415814.562    
      original UTM y:    8342900.00    
      original depth:   -0.00000000      m
      horizontal distance km:    25.5304718    
      target x, y, z:    415814.562       8342900.00       0.00000000    
      closest estimate found:    9.31322575E-10  m away

      receiver located in slice           30
                       in element          400
                       in acoustic domain
      at coordinates: 
      xi    =    1.0000000000000000     
      eta   =  -0.17926518013235182     
      gamma =    3.7869445835764057E-002
      rotation matrix: 
      nu1 =    1.00000000       0.00000000       0.00000000    
      nu2 =    0.00000000       1.00000000       0.00000000    
      nu3 =    0.00000000       0.00000000       1.00000000    
      UTM x:    415814.55694583576     
      UTM y:    8342900.2348198667     
      depth:    0.0000000000000000       m
      z:    0.0000000000000000     



 station #           67     CC    S40
      original latitude:   -14.9846001    
      original longitude:   -171.785004    
      original UTM x:    415598.312    
      original UTM y:    8343242.50    
      original depth:   -0.00000000      m
      horizontal distance km:    25.5759201    
      target x, y, z:    415598.312       8343242.50       0.00000000    
      closest estimate found:    9.33139788E-10  m away

      receiver located in slice           30
                       in element          400
                       in acoustic domain
      at coordinates: 
      xi    =    1.0000000000000000     
      eta   =   0.16287337797600776     
      gamma =  -0.17839025537838460     
      rotation matrix: 
      nu1 =    1.00000000       0.00000000       0.00000000    
      nu2 =    0.00000000       1.00000000       0.00000000    
      nu3 =    0.00000000       0.00000000       1.00000000    
      UTM x:    415598.29724462156     
      UTM y:    8343242.3733779751     
      depth:    0.0000000000000000       m
      z:    0.0000000000000000     



 station #           68     CC    S41
      original latitude:   -14.9814997    
      original longitude:   -171.787994    
      original UTM x:    415274.500    
      original UTM y:    8343584.00    
      original depth:   -0.00000000      m
      horizontal distance km:    25.5452633    
      target x, y, z:    415274.500       8343584.00       0.00000000    
      closest estimate found:    0.00000000      m away

      receiver located in slice           30
                       in element          400
                       in acoustic domain
      at coordinates: 
      xi    =    1.0000000000000000     
      eta   =   0.50462812106801180     
      gamma =  -0.50218155665523279     
      rotation matrix: 
      nu1 =    1.00000000       0.00000000       0.00000000    
      nu2 =    0.00000000       1.00000000       0.00000000    
      nu3 =    0.00000000       0.00000000       1.00000000    
      UTM x:    415274.50594334479     
      UTM y:    8343584.1281210687     
      depth:    0.0000000000000000       m
      z:    0.0000000000000000     



 station #           69     CC    S42
[...]
 Time steps remaining =        12000
 Estimated remaining time in seconds =    215.386276    
 Estimated remaining time in hh:mm:ss =      0 h 03 m 35 s
 Estimated total run time in seconds =    358.977142    
 Estimated total run time in hh:mm:ss =      0 h 05 m 58 s
 We have done    40.0000000     % of that
 The run will finish approximately on (in local time): Tue May 28, 2019 16:16

 Time step #         8500
 Time:    68.9899979      seconds
 Elapsed time in seconds =    151.30278205871582     
 Elapsed time in hh:mm:ss =      0 h 02 m 31 s
 Mean elapsed time per time step in seconds =    1.78003274E-02
 Max norm displacement vector U in all slices (m) =    6412.93994    
 Max norm pressure P in all slices (Pa) =    372212.938    
 Time steps done =         8500  out of        20000
 Time steps remaining =        11500
 Estimated remaining time in seconds =    204.703766    
 Estimated remaining time in hh:mm:ss =      0 h 03 m 24 s
 Estimated total run time in seconds =    356.006531    
 Estimated total run time in hh:mm:ss =      0 h 05 m 56 s
 We have done    42.5000000     % of that
 The run will finish approximately on (in local time): Tue May 28, 2019 16:15

 Time step #         9000
 Time:    73.9899979      seconds
 Elapsed time in seconds =    158.72547602653503     
 Elapsed time in hh:mm:ss =      0 h 02 m 38 s
 Mean elapsed time per time step in seconds =    1.76361632E-02
 Max norm displacement vector U in all slices (m) =    6412.98047    
 Max norm pressure P in all slices (Pa) =    265068.125    
 Time steps done =         9000  out of        20000
 Time steps remaining =        11000
 Estimated remaining time in seconds =    193.997803    
 Estimated remaining time in hh:mm:ss =      0 h 03 m 13 s
 Estimated total run time in seconds =    352.723267    
 Estimated total run time in hh:mm:ss =      0 h 05 m 52 s
 We have done    45.0000000     % of that
 The run will finish approximately on (in local time): Tue May 28, 2019 16:15

 Time step #         9500
 Time:    78.9899979      seconds
 Elapsed time in seconds =    166.05824708938599     
 Elapsed time in hh:mm:ss =      0 h 02 m 46 s
 Mean elapsed time per time step in seconds =    1.74798146E-02
 Max norm displacement vector U in all slices (m) =    6413.01367    
 Max norm pressure P in all slices (Pa) =    276716.656    
 Time steps done =         9500  out of        20000
 Time steps remaining =        10500
 Estimated remaining time in seconds =    183.538055    
 Estimated remaining time in hh:mm:ss =      0 h 03 m 03 s
 Estimated total run time in seconds =    349.596313    
 Estimated total run time in hh:mm:ss =      0 h 05 m 49 s
 We have done    47.5000000     % of that
 The run will finish approximately on (in local time): Tue May 28, 2019 16:15

 Time step #        10000
 Time:    83.9899979      seconds
 Elapsed time in seconds =    173.41899895668030     
 Elapsed time in hh:mm:ss =      0 h 02 m 53 s
 Mean elapsed time per time step in seconds =    1.73419006E-02
 Max norm displacement vector U in all slices (m) =    6413.04004    
 Max norm pressure P in all slices (Pa) =    221338.156    
 Time steps done =        10000  out of        20000
 Time steps remaining =        10000
 Estimated remaining time in seconds =    173.419006    
 Estimated remaining time in hh:mm:ss =      0 h 02 m 53 s
 Estimated total run time in seconds =    346.838013    
 Estimated total run time in hh:mm:ss =      0 h 05 m 46 s
 We have done    50.0000000     % of that
 The run will finish approximately on (in local time): Tue May 28, 2019 16:15


 Total number of time steps written:        10000
 Writing the seismograms in parallel took    5.83904076      seconds

 Time step #        10500
 Time:    88.9899979      seconds
 Elapsed time in seconds =    186.31192016601562     
 Elapsed time in hh:mm:ss =      0 h 03 m 06 s
 Mean elapsed time per time step in seconds =    1.77439917E-02
 Max norm displacement vector U in all slices (m) =    6413.06055    
 Max norm pressure P in all slices (Pa) =    227741.500    
 Time steps done =        10500  out of        20000
 Time steps remaining =         9500
 Estimated remaining time in seconds =    168.567932    
 Estimated remaining time in hh:mm:ss =      0 h 02 m 48 s
 Estimated total run time in seconds =    354.879852    
 Estimated total run time in hh:mm:ss =      0 h 05 m 54 s
 We have done    52.5000000     % of that
 The run will finish approximately on (in local time): Tue May 28, 2019 16:15

 Time step #        11000
 Time:    93.9899979      seconds
 Elapsed time in seconds =    193.38396716117859     
 Elapsed time in hh:mm:ss =      0 h 03 m 13 s
 Mean elapsed time per time step in seconds =    1.75803602E-02
 Max norm displacement vector U in all slices (m) =    6413.07666    
 Max norm pressure P in all slices (Pa) =    274578.156    
 Time steps done =        11000  out of        20000
 Time steps remaining =         9000
 Estimated remaining time in seconds =    158.223251    
 Estimated remaining time in hh:mm:ss =      0 h 02 m 38 s
 Estimated total run time in seconds =    351.607208    
 Estimated total run time in hh:mm:ss =      0 h 05 m 51 s
 We have done    55.0000000     % of that
 The run will finish approximately on (in local time): Tue May 28, 2019 16:15

 Time step #        11500
 Time:    98.9899979      seconds
 Elapsed time in seconds =    200.70845794677734     
 Elapsed time in hh:mm:ss =      0 h 03 m 20 s
 Mean elapsed time per time step in seconds =    1.74529087E-02
 Max norm displacement vector U in all slices (m) =    6413.09180    
 Max norm pressure P in all slices (Pa) =    263162.281    
 Time steps done =        11500  out of        20000
 Time steps remaining =         8500
 Estimated remaining time in seconds =    148.349731    
 Estimated remaining time in hh:mm:ss =      0 h 02 m 28 s
 Estimated total run time in seconds =    349.058197    
 Estimated total run time in hh:mm:ss =      0 h 05 m 49 s
 We have done    57.5000000     % of that
 The run will finish approximately on (in local time): Tue May 28, 2019 16:15

 Time step #        12000
 Time:    103.989998      seconds
 Elapsed time in seconds =    207.92957997322083     
 Elapsed time in hh:mm:ss =      0 h 03 m 27 s
 Mean elapsed time per time step in seconds =    1.73274651E-02
 Max norm displacement vector U in all slices (m) =    6413.10205    
 Max norm pressure P in all slices (Pa) =    296705.156    
 Time steps done =        12000  out of        20000
 Time steps remaining =         8000
 Estimated remaining time in seconds =    138.619720    
 Estimated remaining time in hh:mm:ss =      0 h 02 m 18 s
 Estimated total run time in seconds =    346.549286    
 Estimated total run time in hh:mm:ss =      0 h 05 m 46 s
 We have done    60.0000000     % of that
 The run will finish approximately on (in local time): Tue May 28, 2019 16:15

 Time step #        12500
 Time:    108.989998      seconds
 Elapsed time in seconds =    215.08218598365784     
 Elapsed time in hh:mm:ss =      0 h 03 m 35 s
 Mean elapsed time per time step in seconds =    1.72065757E-02
 Max norm displacement vector U in all slices (m) =    6413.10889    
 Max norm pressure P in all slices (Pa) =    320862.906    
 Time steps done =        12500  out of        20000
 Time steps remaining =         7500
 Estimated remaining time in seconds =    129.049316    
 Estimated remaining time in hh:mm:ss =      0 h 02 m 09 s
 Estimated total run time in seconds =    344.131500    
 Estimated total run time in hh:mm:ss =      0 h 05 m 44 s
 We have done    62.5000000     % of that
 The run will finish approximately on (in local time): Tue May 28, 2019 16:15

 Time step #        13000
 Time:    113.989998      seconds
 Elapsed time in seconds =    222.50748300552368     
 Elapsed time in hh:mm:ss =      0 h 03 m 42 s
 Mean elapsed time per time step in seconds =    1.71159599E-02
 Max norm displacement vector U in all slices (m) =    6413.11914    
 Max norm pressure P in all slices (Pa) =    352862.125    
 Time steps done =        13000  out of        20000
 Time steps remaining =         7000
 Estimated remaining time in seconds =    119.811722    
 Estimated remaining time in hh:mm:ss =      0 h 01 m 59 s
 Estimated total run time in seconds =    342.319214    
 Estimated total run time in hh:mm:ss =      0 h 05 m 42 s
 We have done    65.0000000     % of that
 The run will finish approximately on (in local time): Tue May 28, 2019 16:15

 Time step #        13500
 Time:    118.989998      seconds
 Elapsed time in seconds =    229.49868702888489     
 Elapsed time in hh:mm:ss =      0 h 03 m 49 s
 Mean elapsed time per time step in seconds =    1.69999022E-02
 Max norm displacement vector U in all slices (m) =    6413.12256    
 Max norm pressure P in all slices (Pa) =    203476.516    
 Time steps done =        13500  out of        20000
 Time steps remaining =         6500
 Estimated remaining time in seconds =    110.499367    
 Estimated remaining time in hh:mm:ss =      0 h 01 m 50 s
 Estimated total run time in seconds =    339.998047    
 Estimated total run time in hh:mm:ss =      0 h 05 m 39 s
 We have done    67.5000000     % of that
 The run will finish approximately on (in local time): Tue May 28, 2019 16:15

 Time step #        14000
 Time:    123.989998      seconds
 Elapsed time in seconds =    236.77414703369141     
 Elapsed time in hh:mm:ss =      0 h 03 m 56 s
 Mean elapsed time per time step in seconds =    1.69124398E-02
 Max norm displacement vector U in all slices (m) =    6413.12695    
 Max norm pressure P in all slices (Pa) =    307271.156    
 Time steps done =        14000  out of        20000
 Time steps remaining =         6000
 Estimated remaining time in seconds =    101.474632    
 Estimated remaining time in hh:mm:ss =      0 h 01 m 41 s
 Estimated total run time in seconds =    338.248779    
 Estimated total run time in hh:mm:ss =      0 h 05 m 38 s
 We have done    70.0000000     % of that
 The run will finish approximately on (in local time): Tue May 28, 2019 16:15

 Time step #        14500
 Time:    128.990005      seconds
 Elapsed time in seconds =    244.20342016220093     
 Elapsed time in hh:mm:ss =      0 h 04 m 04 s
 Mean elapsed time per time step in seconds =    1.68416146E-02
 Max norm displacement vector U in all slices (m) =    6413.13232    
 Max norm pressure P in all slices (Pa) =    270814.656    
 Time steps done =        14500  out of        20000
 Time steps remaining =         5500
 Estimated remaining time in seconds =    92.6288834    
 Estimated remaining time in hh:mm:ss =      0 h 01 m 32 s
 Estimated total run time in seconds =    336.832306    
 Estimated total run time in hh:mm:ss =      0 h 05 m 36 s
 We have done    72.5000000     % of that
 The run will finish approximately on (in local time): Tue May 28, 2019 16:15

 Time step #        15000
 Time:    133.990005      seconds
 Elapsed time in seconds =    251.35932302474976     
 Elapsed time in hh:mm:ss =      0 h 04 m 11 s
 Mean elapsed time per time step in seconds =    1.67572889E-02
 Max norm displacement vector U in all slices (m) =    6413.13428    
 Max norm pressure P in all slices (Pa) =    238081.797    
 Time steps done =        15000  out of        20000
 Time steps remaining =         5000
 Estimated remaining time in seconds =    83.7864380    
 Estimated remaining time in hh:mm:ss =      0 h 01 m 23 s
 Estimated total run time in seconds =    335.145752    
 Estimated total run time in hh:mm:ss =      0 h 05 m 35 s
 We have done    75.0000000     % of that
 The run will finish approximately on (in local time): Tue May 28, 2019 16:14


 Total number of time steps written:        15000
 Writing the seismograms in parallel took    5.55984974      seconds

 Time step #        15500
 Time:    138.990005      seconds
 Elapsed time in seconds =    264.93420195579529     
 Elapsed time in hh:mm:ss =      0 h 04 m 24 s
 Mean elapsed time per time step in seconds =    1.70925297E-02
 Max norm displacement vector U in all slices (m) =    6413.13672    
 Max norm pressure P in all slices (Pa) =    217362.422    
 Time steps done =        15500  out of        20000
 Time steps remaining =         4500
 Estimated remaining time in seconds =    76.9163818    
 Estimated remaining time in hh:mm:ss =      0 h 01 m 16 s
 Estimated total run time in seconds =    341.850586    
 Estimated total run time in hh:mm:ss =      0 h 05 m 41 s
 We have done    77.5000000     % of that
 The run will finish approximately on (in local time): Tue May 28, 2019 16:15

 Time step #        16000
 Time:    143.990005      seconds
 Elapsed time in seconds =    272.66932010650635     
 Elapsed time in hh:mm:ss =      0 h 04 m 32 s
 Mean elapsed time per time step in seconds =    1.70418322E-02
 Max norm displacement vector U in all slices (m) =    6413.13867    
 Max norm pressure P in all slices (Pa) =    285846.719    
 Time steps done =        16000  out of        20000
 Time steps remaining =         4000
 Estimated remaining time in seconds =    68.1673279    
 Estimated remaining time in hh:mm:ss =      0 h 01 m 08 s
 Estimated total run time in seconds =    340.836639    
 Estimated total run time in hh:mm:ss =      0 h 05 m 40 s
 We have done    80.0000000     % of that
 The run will finish approximately on (in local time): Tue May 28, 2019 16:15

 Time step #        16500
 Time:    148.990005      seconds
 Elapsed time in seconds =    280.22633910179138     
 Elapsed time in hh:mm:ss =      0 h 04 m 40 s
 Mean elapsed time per time step in seconds =    1.69834141E-02
 Max norm displacement vector U in all slices (m) =    6413.14014    
 Max norm pressure P in all slices (Pa) =    200307.328    
 Time steps done =        16500  out of        20000
 Time steps remaining =         3500
 Estimated remaining time in seconds =    59.4419518    
 Estimated remaining time in hh:mm:ss =      0 h 00 m 59 s
 Estimated total run time in seconds =    339.668304    
 Estimated total run time in hh:mm:ss =      0 h 05 m 39 s
 We have done    82.5000000     % of that
 The run will finish approximately on (in local time): Tue May 28, 2019 16:15

 Time step #        17000
 Time:    153.990005      seconds
 Elapsed time in seconds =    287.69748902320862     
 Elapsed time in hh:mm:ss =      0 h 04 m 47 s
 Mean elapsed time per time step in seconds =    1.69233810E-02
 Max norm displacement vector U in all slices (m) =    6413.14014    
 Max norm pressure P in all slices (Pa) =    266794.969    
 Time steps done =        17000  out of        20000
 Time steps remaining =         3000
 Estimated remaining time in seconds =    50.7701454    
 Estimated remaining time in hh:mm:ss =      0 h 00 m 50 s
 Estimated total run time in seconds =    338.467621    
 Estimated total run time in hh:mm:ss =      0 h 05 m 38 s
 We have done    85.0000000     % of that
 The run will finish approximately on (in local time): Tue May 28, 2019 16:15

 Time step #        17500
 Time:    158.990005      seconds
 Elapsed time in seconds =    295.35475611686707     
 Elapsed time in hh:mm:ss =      0 h 04 m 55 s
 Mean elapsed time per time step in seconds =    1.68774147E-02
 Max norm displacement vector U in all slices (m) =    6413.14111    
 Max norm pressure P in all slices (Pa) =    260602.703    
 Time steps done =        17500  out of        20000
 Time steps remaining =         2500
 Estimated remaining time in seconds =    42.1935349    
 Estimated remaining time in hh:mm:ss =      0 h 00 m 42 s
 Estimated total run time in seconds =    337.548279    
 Estimated total run time in hh:mm:ss =      0 h 05 m 37 s
 We have done    87.5000000     % of that
 The run will finish approximately on (in local time): Tue May 28, 2019 16:15

 Time step #        18000
 Time:    163.990005      seconds
 Elapsed time in seconds =    303.16961312294006     
 Elapsed time in hh:mm:ss =      0 h 05 m 03 s
 Mean elapsed time per time step in seconds =    1.68427564E-02
 Max norm displacement vector U in all slices (m) =    6413.14258    
 Max norm pressure P in all slices (Pa) =    212716.031    
 Time steps done =        18000  out of        20000
 Time steps remaining =         2000
 Estimated remaining time in seconds =    33.6855125    
 Estimated remaining time in hh:mm:ss =      0 h 00 m 33 s
 Estimated total run time in seconds =    336.855133    
 Estimated total run time in hh:mm:ss =      0 h 05 m 36 s
 We have done    90.0000000     % of that
 The run will finish approximately on (in local time): Tue May 28, 2019 16:15

 Time step #        18500
 Time:    168.990005      seconds
 Elapsed time in seconds =    310.95893406867981     
 Elapsed time in hh:mm:ss =      0 h 05 m 10 s
 Mean elapsed time per time step in seconds =    1.68085918E-02
 Max norm displacement vector U in all slices (m) =    6413.14307    
 Max norm pressure P in all slices (Pa) =    240143.609    
 Time steps done =        18500  out of        20000
 Time steps remaining =         1500
 Estimated remaining time in seconds =    25.2128868    
 Estimated remaining time in hh:mm:ss =      0 h 00 m 25 s
 Estimated total run time in seconds =    336.171814    
 Estimated total run time in hh:mm:ss =      0 h 05 m 36 s
 We have done    92.5000000     % of that
 The run will finish approximately on (in local time): Tue May 28, 2019 16:14

 Time step #        19000
 Time:    173.990005      seconds
 Elapsed time in seconds =    318.67836403846741     
 Elapsed time in hh:mm:ss =      0 h 05 m 18 s
 Mean elapsed time per time step in seconds =    1.67725459E-02
 Max norm displacement vector U in all slices (m) =    6413.14404    
 Max norm pressure P in all slices (Pa) =    259560.953    
 Time steps done =        19000  out of        20000
 Time steps remaining =         1000
 Estimated remaining time in seconds =    16.7725449    
 Estimated remaining time in hh:mm:ss =      0 h 00 m 16 s
 Estimated total run time in seconds =    335.450897    
 Estimated total run time in hh:mm:ss =      0 h 05 m 35 s
 We have done    95.0000000     % of that
 The run will finish approximately on (in local time): Tue May 28, 2019 16:15

 Time step #        19500
 Time:    178.990005      seconds
 Elapsed time in seconds =    326.27113008499146     
 Elapsed time in hh:mm:ss =      0 h 05 m 26 s
 Mean elapsed time per time step in seconds =    1.67318527E-02
 Max norm displacement vector U in all slices (m) =    6413.14307    
 Max norm pressure P in all slices (Pa) =    231893.125    
 Time steps done =        19500  out of        20000
 Time steps remaining =          500
 Estimated remaining time in seconds =    8.36592674    
 Estimated remaining time in hh:mm:ss =      0 h 00 m 08 s
 Estimated total run time in seconds =    334.637054    
 Estimated total run time in hh:mm:ss =      0 h 05 m 34 s
 We have done    97.5000000     % of that
 The run will finish approximately on (in local time): Tue May 28, 2019 16:15

 Time step #        20000
 Time:    183.990005      seconds
 Elapsed time in seconds =    333.76871109008789     
 Elapsed time in hh:mm:ss =      0 h 05 m 33 s
 Mean elapsed time per time step in seconds =    1.66884363E-02
 Max norm displacement vector U in all slices (m) =    6413.14404    
 Max norm pressure P in all slices (Pa) =    251239.547    
 Time steps done =        20000  out of        20000
 Time steps remaining =            0
 Estimated remaining time in seconds =    0.00000000    
 Estimated remaining time in hh:mm:ss =      0 h 00 m 00 s
 Estimated total run time in seconds =    333.768707    
 Estimated total run time in hh:mm:ss =      0 h 05 m 33 s
 We have done    100.000000     % of that


 Total number of time steps written:        20000
 Writing the seismograms in parallel took    6.04010677      seconds

 Time-Loop Complete. Timing info:
 Total elapsed time in seconds =    339.90518999099731     
 Total elapsed time in hh:mm:ss =      0 h 05 m 39 s

 End of the simulation

